data_dy-u6
_audit_creation_date               2022-12-02
_audit_creation_method
;
Olex2 1.3
(compiled 2020.11.12 svn.r5f609507 for OlexSys, GUI svn.r6408)
;
_shelx_SHELXL_version_number       '2018/3'
_audit_contact_author_address      ?
_audit_contact_author_email        ?
_audit_contact_author_name         ''
_audit_contact_author_phone        ?
_publ_contact_author_id_orcid      ?
_publ_section_references
;
Dolomanov, O.V., Bourhis, L.J., Gildea, R.J, Howard, J.A.K. & Puschmann, H.
 (2009), J. Appl. Cryst. 42, 339-341.

Sheldrick, G.M. (2015). Acta Cryst. C71, 3-8.
;
_chemical_name_common              ?
_chemical_name_systematic          ?
_chemical_formula_moiety           'Dy4 O77 S12 U6'
_chemical_formula_sum              'Dy4 O77 S12 U6'
_chemical_formula_weight           3694.90
_chemical_melting_point            ?
loop_
  _atom_type_symbol
  _atom_type_description
  _atom_type_scat_dispersion_real
  _atom_type_scat_dispersion_imag
  _atom_type_scat_source
 'Dy' 'Dy' -9.8046 9.8477
 'International Tables Vol C Tables 4.2.6.8 and 6.1.1.4'
 'O' 'O' 0.0492 0.0322 'International Tables Vol C Tables 4.2.6.8 and 6.1.1.4'
 'S' 'S' 0.3331 0.5567 'International Tables Vol C Tables 4.2.6.8 and 6.1.1.4'
 'U' 'U' -4.3638 13.4090 'International Tables Vol C Tables 4.2.6.8 and 6.1.1.4'

_shelx_space_group_comment
;
The symmetry employed for this shelxl refinement is uniquely defined
by the following loop, which should always be used as a source of
symmetry information in preference to the above space-group names.
They are only intended as comments.
;
_space_group_crystal_system        'monoclinic'
_space_group_IT_number             15
_space_group_name_H-M_alt          'C 1 2/c 1'
_space_group_name_Hall             '-C 2yc'
loop_
  _space_group_symop_operation_xyz
 'x, y, z'
 '-x, y, -z+1/2'
 'x+1/2, y+1/2, z'
 '-x+1/2, y+1/2, -z+1/2'
 '-x, -y, -z'
 'x, -y, z-1/2'
 '-x+1/2, -y+1/2, -z'
 'x+1/2, -y+1/2, z-1/2'

# end Validation Reply Form
_cell_length_a                     24.9480(3)
_cell_length_b                     11.80370(10)
_cell_length_c                     26.3449(3)
_cell_angle_alpha                  90
_cell_angle_beta                   113.3390(10)
_cell_angle_gamma                  90
_cell_volume                       7123.23(14)
_cell_formula_units_Z              4
_cell_measurement_reflns_used      123
_cell_measurement_temperature      173
_cell_measurement_theta_max        66.725
_cell_measurement_theta_min        3.515
_shelx_estimated_absorpt_T_max     0.565
_shelx_estimated_absorpt_T_min     0.359
_exptl_absorpt_coefficient_mu      64.344
_exptl_absorpt_correction_T_max    0.366
_exptl_absorpt_correction_T_min    0.146
_exptl_absorpt_correction_type     multi-scan
_exptl_absorpt_process_details     ?
_exptl_absorpt_special_details     ?
_exptl_crystal_colour              'clear green'
_exptl_crystal_colour_lustre       clear
_exptl_crystal_colour_modifier     .
_exptl_crystal_colour_primary      green
_exptl_crystal_density_diffrn      3.445
_exptl_crystal_density_meas        ?
_exptl_crystal_density_method      ?
_exptl_crystal_description         needle
_exptl_crystal_F_000               6496
_exptl_crystal_size_max            0.02
_exptl_crystal_size_mid            0.01
_exptl_crystal_size_min            0.01
_exptl_transmission_factor_max     ?
_exptl_transmission_factor_min     ?
_diffrn_reflns_av_R_equivalents    0.0536
_diffrn_reflns_av_unetI/netI       0.0508
_diffrn_reflns_Laue_measured_fraction_full  0.997
_diffrn_reflns_Laue_measured_fraction_max  0.957
_diffrn_reflns_limit_h_max         31
_diffrn_reflns_limit_h_min         -26
_diffrn_reflns_limit_k_max         14
_diffrn_reflns_limit_k_min         -14
_diffrn_reflns_limit_l_max         32
_diffrn_reflns_limit_l_min         -33
_diffrn_reflns_number              25882
_diffrn_reflns_point_group_measured_fraction_full  0.997
_diffrn_reflns_point_group_measured_fraction_max  0.957
_diffrn_reflns_theta_full          67.684
_diffrn_reflns_theta_max           76.088
_diffrn_reflns_theta_min           3.655
_diffrn_ambient_temperature        173.0
_diffrn_detector_area_resol_mean   ?
_diffrn_measured_fraction_theta_full  0.997
_diffrn_measured_fraction_theta_max  0.957
_diffrn_measurement_device_type    'XtaLAB Synergy, Dualflex, HyPix'
_diffrn_measurement_method         ?
_diffrn_radiation_type             CuK\a
_diffrn_radiation_wavelength       1.54184
_diffrn_source                     ?
_reflns_Friedel_coverage           0.000
_reflns_Friedel_fraction_full      .
_reflns_Friedel_fraction_max       .
_reflns_number_gt                  6049
_reflns_number_total               7131
_reflns_special_details
;
 Reflections were merged by SHELXL according to the crystal
 class for the calculation of statistics and refinement.
 
 Structure factors included contributions from the .fab file.
 
 _reflns_Friedel_fraction is defined as the number of unique
 Friedel pairs measured divided by the number that would be
 possible theoretically, ignoring centric projections and
 systematic absences.
;
_reflns_threshold_expression       'I > 2\s(I)'
_computing_cell_refinement         ?
_computing_data_collection         ?
_computing_data_reduction          ?
_computing_molecular_graphics      'Olex2 1.3 (Dolomanov et al., 2009)'
_computing_publication_material    'Olex2 1.3 (Dolomanov et al., 2009)'
_computing_structure_refinement    'SHELXL 2018/3 (Sheldrick, 2015)'
_computing_structure_solution      'SHELXT 2018/2 (Sheldrick, 2018)'
_refine_diff_density_max           3.293
_refine_diff_density_min           -2.156
_refine_diff_density_rms           0.378
_refine_ls_extinction_coef         .
_refine_ls_extinction_method       none
_refine_ls_goodness_of_fit_ref     1.091
_refine_ls_hydrogen_treatment      undef
_refine_ls_matrix_type             full
_refine_ls_number_parameters       415
_refine_ls_number_reflns           7131
_refine_ls_number_restraints       0
_refine_ls_R_factor_all            0.0538
_refine_ls_R_factor_gt             0.0409
_refine_ls_restrained_S_all        1.091
_refine_ls_shift/su_max            0.001
_refine_ls_shift/su_mean           0.000
_refine_ls_structure_factor_coef   Fsqd
_refine_ls_weighting_details      
 'w=1/[\s^2^(Fo^2^)+(0.0233P)^2^+620.9015P] where P=(Fo^2^+2Fc^2^)/3'
_refine_ls_weighting_scheme        calc
_refine_ls_wR_factor_gt            0.0953
_refine_ls_wR_factor_ref           0.1044
_refine_special_details            ?
_olex2_refinement_description
;
1. Others
 Fixed Sof: O17(0.25) O9(0.25)
;
_atom_sites_solution_hydrogens     .
_atom_sites_solution_primary       ?
_atom_sites_solution_secondary     ?
loop_
  _atom_site_label
  _atom_site_type_symbol
  _atom_site_fract_x
  _atom_site_fract_y
  _atom_site_fract_z
  _atom_site_U_iso_or_equiv
  _atom_site_adp_type
  _atom_site_occupancy
  _atom_site_site_symmetry_order
  _atom_site_calc_flag
  _atom_site_refinement_flags_posn
  _atom_site_refinement_flags_adp
  _atom_site_refinement_flags_occupancy
  _atom_site_disorder_assembly
  _atom_site_disorder_group
 U1 U 0.44537(2) 0.56064(3) 0.32252(2) 0.01089(10) Uani 1 1 d . . . . .
 U4 U 0.500000 0.78853(5) 0.250000 0.01412(13) Uani 1 2 d S T P A .
 U2 U 0.500000 0.32939(5) 0.250000 0.01263(13) Uani 1 2 d S T P A .
 U3 U 0.39488(2) 0.55871(3) 0.16241(2) 0.01341(10) Uani 1 1 d . . . . .
 Dy1 Dy 0.28417(3) 0.93122(6) 0.22619(3) 0.01267(15) Uani 1 1 d . . . . .
 Dy2 Dy 0.57173(3) 0.19922(6) 0.46787(3) 0.01509(16) Uani 1 1 d . . . . .
 S1 S 0.29635(12) 0.6123(3) 0.22854(12) 0.0135(6) Uani 1 1 d . . . . .
 S4 S 0.42099(12) 0.8653(3) 0.33722(12) 0.0128(6) Uani 1 1 d . . . . .
 S6 S 0.43747(13) 0.2567(3) 0.35089(12) 0.0134(6) Uani 1 1 d . . . . .
 S3 S 0.56535(13) 0.5185(3) 0.45684(12) 0.0157(6) Uani 1 1 d . . . . .
 S2 S 0.35933(14) 0.8603(3) 0.13688(12) 0.0174(6) Uani 1 1 d . . . . .
 S5 S 0.63541(14) 0.2617(3) 0.36786(13) 0.0189(6) Uani 1 1 d . . . . .
 O1 O 0.3883(4) 0.5583(8) 0.3942(4) 0.0194(19) Uani 1 1 d . . . . .
 O4 O 0.4504(4) 0.8846(8) 0.2989(4) 0.021(2) Uani 1 1 d . . . . .
 O6 O 0.1974(4) 0.8625(9) 0.1560(4) 0.031(2) Uani 1 1 d . . . . .
 O8 O 0.5063(4) 0.5546(8) 0.4192(3) 0.0184(19) Uani 1 1 d . . . . .
 O10 O 0.3595(4) 0.9002(8) 0.3110(4) 0.0198(19) Uani 1 1 d . . . . .
 O12 O 0.6067(4) 0.5394(8) 0.4301(3) 0.020(2) Uani 1 1 d . . . . .
 O14 O 0.3088(4) 0.5663(8) 0.1829(3) 0.0159(17) Uiso 1 1 d . . . . .
 O16 O 0.5820(4) 0.5843(9) 0.5074(4) 0.027(2) Uani 1 1 d . . . . .
 O18 O 0.3813(4) 0.1960(9) 0.3330(4) 0.026(2) Uani 1 1 d . . . . .
 O20 O 0.3403(4) 0.5694(8) 0.2811(3) 0.0180(18) Uiso 1 1 d . . . . .
 O22 O 0.2383(4) 0.5738(8) 0.2233(4) 0.023(2) Uani 1 1 d . . . . .
 O24 O 0.5637(5) 0.3992(9) 0.4691(5) 0.031(2) Uani 1 1 d . . . . .
 O26 O 0.2279(5) 0.8400(9) 0.2734(4) 0.031(2) Uani 1 1 d . . . . .
 O28 O 0.4264(5) 0.3787(8) 0.3513(4) 0.027(2) Uani 1 1 d . . . . .
 O30 O 0.3164(5) 0.9027(10) 0.1568(5) 0.035(3) Uani 1 1 d . . . . .
 O32 O 0.4642(4) 0.2326(8) 0.3112(4) 0.0192(19) Uani 1 1 d . . . . .
 O34 O 0.6592(5) 0.0849(11) 0.4885(4) 0.040(3) Uani 1 1 d . . . . .
 O36 O 0.4515(5) 0.9302(10) 0.3879(4) 0.032(3) Uani 1 1 d . . . . .
 O38 O 0.6559(4) 0.3783(8) 0.3647(4) 0.026(2) Uani 1 1 d . . . . .
 O40 O 0.4197(5) 0.8857(9) 0.1780(4) 0.030(2) Uani 1 1 d . . . . .
 O5 O 0.6116(6) 0.2631(10) 0.4102(5) 0.039(3) Uani 1 1 d . . . . .
 O21 O 0.5872(4) 0.2309(8) 0.3137(4) 0.026(2) Uani 1 1 d . . . . .
 O11 O 0.5484(5) 0.0515(9) 0.3994(5) 0.034(3) Uani 1 1 d . . . . .
 O23 O 0.3521(4) 0.7369(8) 0.1282(4) 0.024(2) Uani 1 1 d . . . . .
 O3 O 0.4764(4) 0.2224(9) 0.4066(4) 0.027(2) Uani 1 1 d . . . . .
 O25 O 0.5603(5) 0.0321(10) 0.5129(5) 0.040(3) Uani 1 1 d . . . . .
 O13 O 0.4243(5) 0.7440(8) 0.3515(4) 0.027(2) Uani 1 1 d . . . . .
 O27 O 0.2410(5) 1.0839(10) 0.1597(5) 0.040(3) Uani 1 1 d . . . . .
 O7 O 0.3553(4) 1.0752(9) 0.2390(4) 0.025(2) Uani 1 1 d . . . . .
 O29 O 0.5175(5) 0.2431(9) 0.5227(4) 0.035(3) Uani 1 1 d . . . . .
 O15 O 0.3499(6) 0.9124(9) 0.0840(4) 0.041(3) Uani 1 1 d . . . . .
 O31 O 0.6832(5) 0.1828(9) 0.3810(4) 0.037(3) Uani 1 1 d . . . . .
 O2 O 0.2999(5) 0.7348(8) 0.2277(5) 0.030(2) Uani 1 1 d . . . . .
 O33 O 0.6458(6) 0.2613(13) 0.5512(6) 0.057(4) Uiso 1 1 d . . . . .
 O17 O 0.500000 0.094(3) 0.250000 0.018(5) Uiso 0.5 2 d S . P . .
 O35 O 0.4344(5) 0.6555(9) 0.2438(4) 0.032(2) Uiso 1 1 d . . . A 2
 O9 O 0.500000 0.022(3) 0.250000 0.035(7) Uani 0.5 2 d S T P A .
 O37 O 0.4146(4) 0.4365(9) 0.2435(4) 0.029(2) Uiso 1 1 d . . . A 1
 O19 O 0.4773(4) 0.4614(9) 0.1833(4) 0.027(2) Uiso 1 1 d . . . A 1
 O39 O 0.4727(4) 0.6818(9) 0.1643(4) 0.029(2) Uiso 1 1 d . . . A 1

loop_
  _atom_site_aniso_label
  _atom_site_aniso_U_11
  _atom_site_aniso_U_22
  _atom_site_aniso_U_33
  _atom_site_aniso_U_23
  _atom_site_aniso_U_13
  _atom_site_aniso_U_12
 U1 0.01248(19) 0.0094(2) 0.01240(18) 0.00078(15) 0.00659(14) 0.00076(15)
 U4 0.0174(3) 0.0110(3) 0.0183(3) 0.000 0.0116(2) 0.000
 U2 0.0143(3) 0.0107(3) 0.0148(3) 0.000 0.0077(2) 0.000
 U3 0.0166(2) 0.0098(2) 0.01689(19) 0.00056(16) 0.00989(15) 0.00076(16)
 Dy1 0.0126(3) 0.0111(4) 0.0146(3) 0.0000(3) 0.0057(3) 0.0004(3)
 Dy2 0.0192(4) 0.0118(4) 0.0128(3) 0.0005(3) 0.0049(3) 0.0020(3)
 S1 0.0119(13) 0.0145(15) 0.0150(13) 0.0014(11) 0.0062(11) 0.0030(11)
 S4 0.0143(14) 0.0110(14) 0.0138(13) 0.0003(11) 0.0062(11) 0.0016(11)
 S6 0.0146(14) 0.0107(14) 0.0158(13) 0.0015(11) 0.0068(11) -0.0017(11)
 S3 0.0170(14) 0.0162(15) 0.0126(13) -0.0009(11) 0.0044(11) 0.0022(12)
 S2 0.0252(16) 0.0119(15) 0.0168(14) 0.0052(12) 0.0102(12) 0.0027(12)
 S5 0.0267(17) 0.0143(15) 0.0180(14) 0.0026(12) 0.0115(13) 0.0080(13)
 O1 0.016(4) 0.024(5) 0.019(4) -0.003(4) 0.008(3) -0.004(4)
 O4 0.027(5) 0.021(5) 0.025(5) 0.002(4) 0.021(4) 0.004(4)
 O6 0.020(5) 0.035(6) 0.032(5) -0.006(5) 0.003(4) -0.010(5)
 O8 0.010(4) 0.026(5) 0.016(4) 0.006(4) 0.001(3) 0.007(4)
 O10 0.011(4) 0.028(5) 0.018(4) 0.003(4) 0.003(3) -0.002(4)
 O12 0.017(4) 0.028(5) 0.013(4) 0.001(4) 0.005(3) 0.004(4)
 O16 0.027(5) 0.029(6) 0.017(4) -0.008(4) 0.000(4) 0.000(4)
 O18 0.023(5) 0.028(6) 0.023(5) -0.007(4) 0.004(4) -0.014(4)
 O22 0.030(5) 0.019(5) 0.022(5) 0.009(4) 0.013(4) -0.001(4)
 O24 0.041(6) 0.017(5) 0.042(6) -0.004(5) 0.023(5) 0.000(5)
 O26 0.046(6) 0.019(5) 0.039(6) 0.003(5) 0.029(5) -0.005(5)
 O28 0.047(6) 0.013(5) 0.032(5) 0.005(4) 0.028(5) 0.007(4)
 O30 0.028(6) 0.040(7) 0.049(7) -0.011(5) 0.027(5) -0.004(5)
 O32 0.011(4) 0.022(5) 0.030(5) 0.004(4) 0.015(4) 0.000(4)
 O34 0.029(6) 0.055(8) 0.030(6) -0.001(5) 0.003(5) 0.019(5)
 O36 0.036(6) 0.047(7) 0.010(4) -0.016(4) 0.006(4) -0.016(5)
 O38 0.028(5) 0.022(5) 0.024(5) 0.010(4) 0.007(4) 0.010(4)
 O40 0.032(6) 0.019(5) 0.030(5) 0.002(4) 0.003(4) -0.004(4)
 O5 0.071(8) 0.029(6) 0.037(6) -0.003(5) 0.042(6) -0.003(6)
 O21 0.024(5) 0.024(5) 0.026(5) 0.004(4) 0.007(4) 0.008(4)
 O11 0.031(6) 0.022(6) 0.049(6) -0.018(5) 0.015(5) -0.003(5)
 O23 0.026(5) 0.010(5) 0.029(5) -0.001(4) 0.005(4) 0.003(4)
 O3 0.017(5) 0.041(6) 0.018(5) 0.003(4) 0.002(4) 0.008(4)
 O25 0.046(7) 0.031(6) 0.052(7) 0.016(5) 0.028(6) 0.014(5)
 O13 0.040(6) 0.016(5) 0.035(5) 0.003(4) 0.026(5) 0.004(4)
 O27 0.030(6) 0.039(7) 0.041(6) 0.022(5) 0.005(5) 0.000(5)
 O7 0.020(5) 0.029(6) 0.025(5) 0.002(4) 0.009(4) -0.011(4)
 O29 0.057(7) 0.032(6) 0.024(5) 0.004(5) 0.026(5) 0.010(5)
 O15 0.078(9) 0.025(6) 0.020(5) 0.000(5) 0.019(5) -0.015(6)
 O31 0.046(7) 0.026(6) 0.036(6) 0.002(5) 0.013(5) 0.019(5)
 O2 0.033(6) 0.014(5) 0.045(6) -0.002(5) 0.020(5) -0.006(4)
 O9 0.05(2) 0.016(16) 0.048(19) 0.000 0.029(16) 0.000

_geom_special_details
;
 All esds (except the esd in the dihedral angle between two l.s. planes)
 are estimated using the full covariance matrix.  The cell esds are taken
 into account individually in the estimation of esds in distances, angles
 and torsion angles; correlations between esds in cell parameters are only
 used when they are defined by crystal symmetry.  An approximate (isotropic)
 treatment of cell esds is used for estimating esds involving l.s. planes.
;
loop_
  _geom_bond_atom_site_label_1
  _geom_bond_atom_site_label_2
  _geom_bond_distance
  _geom_bond_site_symmetry_2
  _geom_bond_publ_flag
 U1 U4 3.8479(6) . ?
 U1 U2 3.8758(5) . ?
 U1 U3 3.8456(5) 2_655 ?
 U1 O1 2.780(9) . ?
 U1 O8 2.395(8) . ?
 U1 O20 2.409(9) . ?
 U1 O28 2.386(9) . ?
 U1 O13 2.421(10) . ?
 U1 O35 2.276(10) . ?
 U1 O37 2.408(10) . ?
 U1 O19 2.312(10) 2_655 ?
 U1 O39 2.406(10) 2_655 ?
 U4 U3 3.8427(6) 2_655 ?
 U4 U3 3.8427(6) . ?
 U4 O4 2.397(9) . ?
 U4 O4 2.397(9) 2_655 ?
 U4 O40 2.433(10) . ?
 U4 O40 2.433(10) 2_655 ?
 U4 O35 2.227(11) 2_655 ?
 U4 O35 2.227(11) . ?
 U4 O9 2.76(3) 1_565 ?
 U4 O39 2.434(10) . ?
 U4 O39 2.434(10) 2_655 ?
 U2 U3 3.8385(6) 2_655 ?
 U2 U3 3.8385(6) . ?
 U2 O32 2.418(8) . ?
 U2 O32 2.418(8) 2_655 ?
 U2 O21 2.452(9) . ?
 U2 O21 2.452(9) 2_655 ?
 U2 O17 2.77(3) . ?
 U2 O37 2.426(10) . ?
 U2 O37 2.426(10) 2_655 ?
 U2 O19 2.247(10) 2_655 ?
 U2 O19 2.247(10) . ?
 U3 O12 2.433(8) 2_655 ?
 U3 O14 2.416(8) . ?
 U3 O38 2.436(9) 2_655 ?
 U3 O23 2.370(9) . ?
 U3 O35 2.280(10) . ?
 U3 O37 2.462(10) . ?
 U3 O19 2.227(10) . ?
 U3 O39 2.408(10) . ?
 Dy1 O6 2.364(9) . ?
 Dy1 O10 2.309(9) . ?
 Dy1 O22 2.347(9) 4 ?
 Dy1 O26 2.461(10) . ?
 Dy1 O30 2.294(10) . ?
 Dy1 O27 2.445(10) . ?
 Dy1 O7 2.382(9) . ?
 Dy1 O2 2.349(10) . ?
 Dy2 O24 2.370(10) . ?
 Dy2 O34 2.438(11) . ?
 Dy2 O5 2.250(10) . ?
 Dy2 O11 2.409(10) . ?
 Dy2 O3 2.301(9) . ?
 Dy2 O25 2.377(11) . ?
 Dy2 O29 2.393(10) . ?
 Dy2 O33 2.357(14) . ?
 S1 O14 1.459(9) . ?
 S1 O20 1.474(9) . ?
 S1 O22 1.471(10) . ?
 S1 O2 1.449(10) . ?
 S4 O4 1.481(9) . ?
 S4 O10 1.469(9) . ?
 S4 O36 1.464(9) . ?
 S4 O13 1.474(10) . ?
 S6 O18 1.476(10) . ?
 S6 O28 1.467(10) . ?
 S6 O32 1.473(9) . ?
 S6 O3 1.460(9) . ?
 S3 O8 1.475(8) . ?
 S3 O12 1.482(9) . ?
 S3 O16 1.452(10) . ?
 S3 O24 1.449(11) . ?
 S2 O30 1.456(10) . ?
 S2 O40 1.496(10) . ?
 S2 O23 1.475(10) . ?
 S2 O15 1.453(10) . ?
 S5 O38 1.482(11) . ?
 S5 O5 1.457(10) . ?
 S5 O21 1.500(10) . ?
 S5 O31 1.443(11) . ?
 O17 O9 0.85(3) . ?

loop_
  _geom_angle_atom_site_label_1
  _geom_angle_atom_site_label_2
  _geom_angle_atom_site_label_3
  _geom_angle
  _geom_angle_site_symmetry_1
  _geom_angle_site_symmetry_3
  _geom_angle_publ_flag
 U4 U1 U2 89.122(11) . . ?
 U3 U1 U4 59.930(9) 2_655 . ?
 U3 U1 U2 59.619(9) 2_655 . ?
 O1 U1 U4 136.2(2) . . ?
 O1 U1 U2 134.7(2) . . ?
 O1 U1 U3 135.95(18) . 2_655 ?
 O8 U1 U4 110.4(2) . . ?
 O8 U1 U2 107.7(2) . . ?
 O8 U1 U3 72.2(2) . 2_655 ?
 O8 U1 O1 63.7(3) . . ?
 O8 U1 O20 127.0(3) . . ?
 O8 U1 O13 79.5(3) . . ?
 O8 U1 O37 138.7(3) . . ?
 O8 U1 O39 73.7(3) . 2_655 ?
 O20 U1 U4 106.3(2) . . ?
 O20 U1 U2 109.8(2) . . ?
 O20 U1 U3 160.7(2) . 2_655 ?
 O20 U1 O1 63.3(3) . . ?
 O20 U1 O13 76.8(3) . . ?
 O28 U1 U4 160.1(2) . . ?
 O28 U1 U2 71.0(2) . . ?
 O28 U1 U3 106.8(2) . 2_655 ?
 O28 U1 O1 63.6(3) . . ?
 O28 U1 O8 76.0(3) . . ?
 O28 U1 O20 82.3(3) . . ?
 O28 U1 O13 127.6(3) . . ?
 O28 U1 O37 72.0(3) . . ?
 O28 U1 O39 138.9(4) . 2_655 ?
 O13 U1 U4 72.2(2) . . ?
 O13 U1 U2 161.4(2) . . ?
 O13 U1 U3 108.5(2) . 2_655 ?
 O13 U1 O1 64.0(3) . . ?
 O35 U1 U4 30.9(3) . . ?
 O35 U1 U2 80.6(3) . . ?
 O35 U1 O1 135.6(3) . . ?
 O35 U1 O8 141.3(4) . . ?
 O35 U1 O20 81.3(3) . . ?
 O35 U1 O28 139.9(4) . . ?
 O35 U1 O13 83.3(4) . . ?
 O35 U1 O39 68.1(4) . 2_655 ?
 O37 U1 U4 92.9(2) . . ?
 O37 U1 U2 36.9(2) . . ?
 O37 U1 U3 92.8(2) . 2_655 ?
 O37 U1 O1 120.5(3) . . ?
 O37 U1 O20 73.6(3) . . ?
 O37 U1 O13 141.4(4) . . ?
 O19 U1 U4 81.5(3) 2_655 . ?
 O19 U1 U2 31.3(2) 2_655 . ?
 O19 U1 U3 31.4(3) 2_655 2_655 ?
 O19 U1 O1 134.8(3) 2_655 . ?
 O19 U1 O8 82.0(3) 2_655 . ?
 O19 U1 O20 141.1(3) 2_655 . ?
 O19 U1 O28 80.8(3) 2_655 . ?
 O19 U1 O13 139.9(4) 2_655 . ?
 O19 U1 O37 67.9(3) 2_655 . ?
 O19 U1 O39 68.1(4) 2_655 2_655 ?
 O39 U1 U4 37.6(2) 2_655 . ?
 O39 U1 U2 92.6(2) 2_655 . ?
 O39 U1 U3 37.0(3) 2_655 2_655 ?
 O39 U1 O1 122.9(3) 2_655 . ?
 O39 U1 O20 138.6(3) 2_655 . ?
 O39 U1 O13 72.6(3) 2_655 . ?
 O39 U1 O37 116.6(3) 2_655 . ?
 U3 U4 U1 60.852(11) 2_655 2_655 ?
 U3 U4 U1 60.005(11) . 2_655 ?
 U3 U4 U3 90.189(17) . 2_655 ?
 O4 U4 U1 72.8(2) 2_655 2_655 ?
 O4 U4 U1 163.3(2) . 2_655 ?
 O4 U4 U3 112.7(2) . 2_655 ?
 O4 U4 U3 106.4(2) 2_655 2_655 ?
 O4 U4 U3 106.4(2) . . ?
 O4 U4 U3 112.7(2) 2_655 . ?
 O4 U4 O4 123.5(4) 2_655 . ?
 O4 U4 O40 78.4(3) 2_655 . ?
 O4 U4 O40 75.8(3) 2_655 2_655 ?
 O4 U4 O40 78.4(3) . 2_655 ?
 O4 U4 O40 75.8(3) . . ?
 O4 U4 O9 61.8(2) 2_655 1_565 ?
 O4 U4 O9 61.8(2) . 1_565 ?
 O4 U4 O39 76.2(3) 2_655 . ?
 O4 U4 O39 136.8(3) 2_655 2_655 ?
 O4 U4 O39 76.2(3) . 2_655 ?
 O4 U4 O39 136.8(3) . . ?
 O40 U4 U1 106.7(3) . 2_655 ?
 O40 U4 U1 111.9(2) 2_655 2_655 ?
 O40 U4 U3 73.1(2) . . ?
 O40 U4 U3 73.1(2) 2_655 2_655 ?
 O40 U4 U3 163.0(2) 2_655 . ?
 O40 U4 U3 163.0(2) . 2_655 ?
 O40 U4 O40 123.7(5) 2_655 . ?
 O40 U4 O9 61.9(2) 2_655 1_565 ?
 O40 U4 O9 61.9(2) . 1_565 ?
 O40 U4 O39 144.0(4) 2_655 . ?
 O40 U4 O39 71.3(4) . . ?
 O40 U4 O39 144.0(4) . 2_655 ?
 O40 U4 O39 71.3(4) 2_655 2_655 ?
 O35 U4 U3 31.9(3) . . ?
 O35 U4 U3 81.6(3) 2_655 . ?
 O35 U4 O4 81.5(4) . . ?
 O35 U4 O4 144.6(3) 2_655 . ?
 O35 U4 O40 138.1(4) 2_655 . ?
 O35 U4 O40 85.4(4) . . ?
 O35 U4 O39 68.8(4) 2_655 2_655 ?
 O35 U4 O39 68.4(4) . 2_655 ?
 O9 U4 U1 134.353(9) 1_565 2_655 ?
 O9 U4 U3 134.906(9) 1_565 2_655 ?
 O9 U4 U3 134.905(9) 1_565 . ?
 O39 U4 U1 94.3(2) 2_655 2_655 ?
 O39 U4 U1 37.1(2) . 2_655 ?
 O39 U4 U3 37.3(2) 2_655 2_655 ?
 O39 U4 U3 37.3(2) . . ?
 O39 U4 U3 93.7(2) . 2_655 ?
 O39 U4 U3 93.7(2) 2_655 . ?
 O39 U4 O9 121.2(2) . 1_565 ?
 O39 U4 O9 121.2(2) 2_655 1_565 ?
 O39 U4 O39 117.7(5) . 2_655 ?
 U3 U2 U1 59.800(11) . 2_655 ?
 U3 U2 U1 60.644(11) 2_655 2_655 ?
 U3 U2 U3 90.314(17) 2_655 . ?
 O32 U2 U1 163.1(2) . 2_655 ?
 O32 U2 U1 73.1(2) 2_655 2_655 ?
 O32 U2 U3 106.1(2) . 2_655 ?
 O32 U2 U3 112.9(2) . . ?
 O32 U2 U3 112.9(2) 2_655 2_655 ?
 O32 U2 U3 106.1(2) 2_655 . ?
 O32 U2 O32 123.6(4) 2_655 . ?
 O32 U2 O21 76.8(3) 2_655 . ?
 O32 U2 O21 76.8(3) . 2_655 ?
 O32 U2 O21 77.3(3) . . ?
 O32 U2 O21 77.3(3) 2_655 2_655 ?
 O32 U2 O17 61.8(2) 2_655 . ?
 O32 U2 O17 61.8(2) . . ?
 O32 U2 O37 75.3(3) 2_655 2_655 ?
 O32 U2 O37 138.2(3) . 2_655 ?
 O32 U2 O37 138.2(3) 2_655 . ?
 O32 U2 O37 75.3(3) . . ?
 O21 U2 U1 112.7(2) 2_655 2_655 ?
 O21 U2 U1 106.4(2) . 2_655 ?
 O21 U2 U3 73.3(2) 2_655 . ?
 O21 U2 U3 162.9(2) . . ?
 O21 U2 U3 73.3(2) . 2_655 ?
 O21 U2 U3 162.9(2) 2_655 2_655 ?
 O21 U2 O21 123.4(5) . 2_655 ?
 O21 U2 O17 61.7(2) 2_655 . ?
 O21 U2 O17 61.7(2) . . ?
 O17 U2 U1 134.772(8) . 2_655 ?
 O17 U2 U3 134.843(9) . 2_655 ?
 O17 U2 U3 134.843(9) . . ?
 O37 U2 U1 36.5(2) 2_655 2_655 ?
 O37 U2 U1 94.0(2) . 2_655 ?
 O37 U2 U3 92.7(2) . 2_655 ?
 O37 U2 U3 38.6(2) . . ?
 O37 U2 U3 38.6(2) 2_655 2_655 ?
 O37 U2 U3 92.7(2) 2_655 . ?
 O37 U2 O21 71.5(3) . 2_655 ?
 O37 U2 O21 71.5(3) 2_655 . ?
 O37 U2 O21 144.3(3) . . ?
 O37 U2 O21 144.3(3) 2_655 2_655 ?
 O37 U2 O17 121.4(3) . . ?
 O37 U2 O17 121.4(3) 2_655 . ?
 O37 U2 O37 117.2(5) . 2_655 ?
 O19 U2 U1 82.5(3) 2_655 2_655 ?
 O19 U2 U1 32.3(3) . 2_655 ?
 O19 U2 U3 83.2(3) 2_655 . ?
 O19 U2 U3 30.8(3) 2_655 2_655 ?
 O19 U2 U3 30.8(3) . . ?
 O19 U2 U3 83.2(3) . 2_655 ?
 O19 U2 O32 81.4(3) 2_655 . ?
 O19 U2 O32 81.4(3) . 2_655 ?
 O19 U2 O32 143.6(3) . . ?
 O19 U2 O32 143.6(3) 2_655 2_655 ?
 O19 U2 O21 138.1(3) . . ?
 O19 U2 O21 138.1(3) 2_655 2_655 ?
 O19 U2 O21 85.0(3) 2_655 . ?
 O19 U2 O21 85.0(3) . 2_655 ?
 O19 U2 O17 133.9(3) . . ?
 O19 U2 O17 133.9(3) 2_655 . ?
 O19 U2 O37 69.0(4) . . ?
 O19 U2 O37 68.6(3) 2_655 . ?
 O19 U2 O37 68.6(3) . 2_655 ?
 O19 U2 O37 69.0(4) 2_655 2_655 ?
 O19 U2 O19 92.2(5) . 2_655 ?
 U1 U3 U1 90.622(11) 2_655 . ?
 U4 U3 U1 59.640(9) . . ?
 U4 U3 U1 60.064(9) . 2_655 ?
 U2 U3 U1 60.151(9) . . ?
 U2 U3 U1 60.580(9) . 2_655 ?
 U2 U3 U4 89.748(12) . . ?
 O12 U3 U1 162.8(2) 2_655 . ?
 O12 U3 U1 73.1(2) 2_655 2_655 ?
 O12 U3 U4 113.8(2) 2_655 . ?
 O12 U3 U2 105.8(2) 2_655 . ?
 O12 U3 O38 79.8(3) 2_655 2_655 ?
 O12 U3 O37 137.2(3) 2_655 . ?
 O14 U3 U1 162.5(2) . 2_655 ?
 O14 U3 U1 72.06(19) . . ?
 O14 U3 U4 107.2(2) . . ?
 O14 U3 U2 110.4(2) . . ?
 O14 U3 O12 124.4(3) . 2_655 ?
 O14 U3 O38 72.2(3) . 2_655 ?
 O14 U3 O37 73.5(3) . . ?
 O38 U3 U1 115.6(2) 2_655 2_655 ?
 O38 U3 U1 103.3(2) 2_655 . ?
 O38 U3 U4 161.0(2) 2_655 . ?
 O38 U3 U2 73.2(2) 2_655 . ?
 O38 U3 O37 69.2(3) 2_655 . ?
 O23 U3 U1 109.1(2) . 2_655 ?
 O23 U3 U1 108.1(2) . . ?
 O23 U3 U4 72.5(2) . . ?
 O23 U3 U2 162.2(2) . . ?
 O23 U3 O12 82.9(3) . 2_655 ?
 O23 U3 O14 75.2(3) . . ?
 O23 U3 O38 124.1(3) . 2_655 ?
 O23 U3 O37 139.0(3) . . ?
 O23 U3 O39 73.2(3) . . ?
 O35 U3 U1 31.2(3) . . ?
 O35 U3 U4 31.1(3) . . ?
 O35 U3 U2 81.4(3) . . ?
 O35 U3 O14 82.1(3) . . ?
 O35 U3 O23 82.8(4) . . ?
 O37 U3 U1 94.1(2) . 2_655 ?
 O37 U3 U1 36.4(2) . . ?
 O37 U3 U4 92.2(2) . . ?
 O37 U3 U2 37.9(2) . . ?
 O19 U3 U1 32.8(3) . 2_655 ?
 O19 U3 U1 82.3(3) . . ?
 O19 U3 U4 82.7(3) . . ?
 O19 U3 U2 31.1(3) . . ?
 O19 U3 O12 81.1(3) . 2_655 ?
 O19 U3 O14 141.3(3) . . ?
 O19 U3 O38 86.7(4) . 2_655 ?
 O19 U3 O23 141.7(4) . . ?
 O19 U3 O37 68.7(3) . . ?
 O19 U3 O39 69.4(4) . . ?
 O39 U3 U1 93.5(2) . . ?
 O39 U3 U1 37.0(3) . 2_655 ?
 O39 U3 U4 37.7(2) . . ?
 O39 U3 U2 93.4(2) . . ?
 O39 U3 O12 76.7(3) . 2_655 ?
 O39 U3 O14 138.9(3) . . ?
 O39 U3 O38 148.7(3) . 2_655 ?
 O39 U3 O37 117.0(3) . . ?
 O6 Dy1 O26 73.5(4) . . ?
 O6 Dy1 O27 71.7(4) . . ?
 O6 Dy1 O7 139.1(4) . . ?
 O10 Dy1 O6 147.6(4) . . ?
 O10 Dy1 O22 81.4(3) . 4 ?
 O10 Dy1 O26 81.4(3) . . ?
 O10 Dy1 O27 140.2(4) . . ?
 O10 Dy1 O7 72.6(3) . . ?
 O10 Dy1 O2 76.1(4) . . ?
 O22 Dy1 O6 109.8(4) 4 . ?
 O22 Dy1 O26 73.5(3) 4 . ?
 O22 Dy1 O27 75.0(4) 4 . ?
 O22 Dy1 O7 74.9(3) 4 . ?
 O22 Dy1 O2 140.7(4) 4 . ?
 O30 Dy1 O6 80.1(4) . . ?
 O30 Dy1 O10 109.8(4) . . ?
 O30 Dy1 O22 142.6(4) . 4 ?
 O30 Dy1 O26 142.0(4) . . ?
 O30 Dy1 O27 74.5(4) . . ?
 O30 Dy1 O7 75.0(4) . . ?
 O30 Dy1 O2 76.1(4) . . ?
 O27 Dy1 O26 120.4(4) . . ?
 O7 Dy1 O26 141.5(3) . . ?
 O7 Dy1 O27 70.6(3) . . ?
 O2 Dy1 O6 76.7(4) . . ?
 O2 Dy1 O26 71.6(4) . . ?
 O2 Dy1 O27 139.7(4) . . ?
 O2 Dy1 O7 126.3(4) . . ?
 O24 Dy2 O34 128.4(4) . . ?
 O24 Dy2 O11 137.2(4) . . ?
 O24 Dy2 O25 142.4(4) . . ?
 O24 Dy2 O29 72.9(4) . . ?
 O5 Dy2 O24 74.8(4) . . ?
 O5 Dy2 O34 74.9(4) . . ?
 O5 Dy2 O11 77.1(4) . . ?
 O5 Dy2 O3 95.6(4) . . ?
 O5 Dy2 O25 142.0(4) . . ?
 O5 Dy2 O29 147.3(4) . . ?
 O5 Dy2 O33 97.5(5) . . ?
 O11 Dy2 O34 72.3(4) . . ?
 O3 Dy2 O24 79.8(4) . . ?
 O3 Dy2 O34 143.9(4) . . ?
 O3 Dy2 O11 71.6(4) . . ?
 O3 Dy2 O25 98.9(4) . . ?
 O3 Dy2 O29 74.0(4) . . ?
 O3 Dy2 O33 145.8(4) . . ?
 O25 Dy2 O34 72.7(4) . . ?
 O25 Dy2 O11 74.5(4) . . ?
 O25 Dy2 O29 70.8(4) . . ?
 O29 Dy2 O34 130.9(4) . . ?
 O29 Dy2 O11 125.6(4) . . ?
 O33 Dy2 O24 73.6(5) . . ?
 O33 Dy2 O34 70.2(4) . . ?
 O33 Dy2 O11 142.2(4) . . ?
 O33 Dy2 O25 89.9(5) . . ?
 O33 Dy2 O29 78.0(4) . . ?
 O14 S1 O20 108.9(5) . . ?
 O14 S1 O22 109.3(5) . . ?
 O22 S1 O20 108.7(5) . . ?
 O2 S1 O14 108.9(6) . . ?
 O2 S1 O20 109.2(6) . . ?
 O2 S1 O22 111.8(6) . . ?
 O10 S4 O4 110.0(5) . . ?
 O10 S4 O13 109.6(6) . . ?
 O36 S4 O4 108.8(6) . . ?
 O36 S4 O10 110.6(6) . . ?
 O36 S4 O13 108.6(6) . . ?
 O13 S4 O4 109.2(5) . . ?
 O28 S6 O18 108.7(6) . . ?
 O28 S6 O32 109.5(5) . . ?
 O32 S6 O18 108.7(6) . . ?
 O3 S6 O18 110.8(6) . . ?
 O3 S6 O28 108.5(6) . . ?
 O3 S6 O32 110.6(5) . . ?
 O8 S3 O12 109.2(5) . . ?
 O16 S3 O8 108.0(6) . . ?
 O16 S3 O12 110.3(6) . . ?
 O24 S3 O8 108.8(6) . . ?
 O24 S3 O12 110.7(6) . . ?
 O24 S3 O16 109.8(6) . . ?
 O30 S2 O40 110.1(6) . . ?
 O30 S2 O23 109.4(6) . . ?
 O23 S2 O40 109.7(6) . . ?
 O15 S2 O30 109.7(7) . . ?
 O15 S2 O40 110.1(7) . . ?
 O15 S2 O23 107.8(6) . . ?
 O38 S5 O21 109.6(6) . . ?
 O5 S5 O38 106.6(6) . . ?
 O5 S5 O21 108.3(7) . . ?
 O31 S5 O38 110.0(7) . . ?
 O31 S5 O5 111.9(7) . . ?
 O31 S5 O21 110.3(6) . . ?
 S4 O4 U4 142.6(6) . . ?
 S3 O8 U1 140.2(5) . . ?
 S4 O10 Dy1 142.9(6) . . ?
 S3 O12 U3 138.9(5) . 2_655 ?
 S1 O14 U3 134.1(5) . . ?
 S1 O20 U1 135.4(5) . . ?
 S1 O22 Dy1 128.0(5) . 4_545 ?
 S3 O24 Dy2 162.8(7) . . ?
 S6 O28 U1 145.1(6) . . ?
 S2 O30 Dy1 151.4(8) . . ?
 S6 O32 U2 140.6(6) . . ?
 S5 O38 U3 132.7(6) . 2_655 ?
 S2 O40 U4 138.8(6) . . ?
 S5 O5 Dy2 159.5(7) . . ?
 S5 O21 U2 134.1(6) . . ?
 S2 O23 U3 144.0(6) . . ?
 S6 O3 Dy2 146.0(6) . . ?
 S4 O13 U1 141.8(6) . . ?
 S1 O2 Dy1 166.9(7) . . ?
 O9 O17 U2 180.0 . . ?
 U1 O35 U3 117.5(5) . . ?
 U4 O35 U1 117.4(5) . . ?
 U4 O35 U3 117.0(5) . . ?
 O17 O9 U4 180.0 . 1_545 ?
 U1 O37 U2 106.6(4) . . ?
 U1 O37 U3 106.2(4) . . ?
 U2 O37 U3 103.5(4) . . ?
 U2 O19 U1 116.4(4) . 2_655 ?
 U3 O19 U1 115.8(4) . 2_655 ?
 U3 O19 U2 118.2(4) . . ?
 U1 O39 U4 105.3(4) 2_655 . ?
 U1 O39 U3 106.0(4) 2_655 . ?
 U3 O39 U4 105.0(4) . . ?

loop_
  _geom_torsion_atom_site_label_1
  _geom_torsion_atom_site_label_2
  _geom_torsion_atom_site_label_3
  _geom_torsion_atom_site_label_4
  _geom_torsion
  _geom_torsion_site_symmetry_1
  _geom_torsion_site_symmetry_2
  _geom_torsion_site_symmetry_3
  _geom_torsion_site_symmetry_4
  _geom_torsion_publ_flag
 O4 S4 O10 Dy1 22.5(11) . . . . ?
 O4 S4 O13 U1 -15.1(12) . . . . ?
 O8 S3 O12 U3 -24.5(10) . . . 2_655 ?
 O8 S3 O24 Dy2 98(2) . . . . ?
 O10 S4 O4 U4 -118.5(9) . . . . ?
 O10 S4 O13 U1 105.4(10) . . . . ?
 O12 S3 O8 U1 35.1(10) . . . . ?
 O12 S3 O24 Dy2 -22(3) . . . . ?
 O14 S1 O20 U1 50.7(9) . . . . ?
 O14 S1 O22 Dy1 103.4(7) . . . 4_545 ?
 O14 S1 O2 Dy1 126(3) . . . . ?
 O16 S3 O8 U1 155.0(8) . . . . ?
 O16 S3 O12 U3 -143.0(8) . . . 2_655 ?
 O16 S3 O24 Dy2 -144(2) . . . . ?
 O18 S6 O28 U1 -131.0(11) . . . . ?
 O18 S6 O32 U2 122.6(8) . . . . ?
 O18 S6 O3 Dy2 151.4(11) . . . . ?
 O20 S1 O14 U3 -51.3(8) . . . . ?
 O20 S1 O22 Dy1 -15.3(8) . . . 4_545 ?
 O20 S1 O2 Dy1 -115(3) . . . . ?
 O22 S1 O14 U3 -169.9(6) . . . . ?
 O22 S1 O20 U1 169.7(7) . . . . ?
 O22 S1 O2 Dy1 5(3) . . . . ?
 O24 S3 O8 U1 -85.9(9) . . . . ?
 O24 S3 O12 U3 95.3(9) . . . 2_655 ?
 O28 S6 O32 U2 4.0(10) . . . . ?
 O28 S6 O3 Dy2 -89.3(12) . . . . ?
 O30 S2 O40 U4 101.1(10) . . . . ?
 O30 S2 O23 U3 -109.4(11) . . . . ?
 O32 S6 O28 U1 -12.4(13) . . . . ?
 O32 S6 O3 Dy2 30.8(14) . . . . ?
 O36 S4 O4 U4 120.2(10) . . . . ?
 O36 S4 O10 Dy1 142.7(9) . . . . ?
 O36 S4 O13 U1 -133.7(10) . . . . ?
 O38 S5 O5 Dy2 -176(2) . . . . ?
 O38 S5 O21 U2 -44.8(9) . . . . ?
 O40 S2 O30 Dy1 -41.1(16) . . . . ?
 O40 S2 O23 U3 11.4(12) . . . . ?
 O5 S5 O38 U3 -64.7(9) . . . 2_655 ?
 O5 S5 O21 U2 71.2(9) . . . . ?
 O21 S5 O38 U3 52.3(9) . . . 2_655 ?
 O21 S5 O5 Dy2 66(2) . . . . ?
 O23 S2 O30 Dy1 79.4(15) . . . . ?
 O23 S2 O40 U4 -19.3(12) . . . . ?
 O3 S6 O28 U1 108.4(11) . . . . ?
 O3 S6 O32 U2 -115.5(9) . . . . ?
 O13 S4 O4 U4 1.8(11) . . . . ?
 O13 S4 O10 Dy1 -97.6(10) . . . . ?
 O15 S2 O30 Dy1 -162.5(13) . . . . ?
 O15 S2 O40 U4 -137.8(9) . . . . ?
 O15 S2 O23 U3 131.4(11) . . . . ?
 O31 S5 O38 U3 173.8(7) . . . 2_655 ?
 O31 S5 O5 Dy2 -56(3) . . . . ?
 O31 S5 O21 U2 -166.1(8) . . . . ?
 O2 S1 O14 U3 67.7(8) . . . . ?
 O2 S1 O20 U1 -68.1(9) . . . . ?
 O2 S1 O22 Dy1 -135.9(7) . . . 4_545 ?

_smtbx_masks_special_details       ?
loop_
  _smtbx_masks_void_nr
  _smtbx_masks_void_average_x
  _smtbx_masks_void_average_y
  _smtbx_masks_void_average_z
  _smtbx_masks_void_volume
  _smtbx_masks_void_count_electrons
  _smtbx_masks_void_content
 1 0.250 -0.465 0.500 304.6 108.5 ?
 2 0.250 0.021 0.000 304.6 108.5 ?
 3 0.750 -0.479 0.000 304.6 108.5 ?
 4 0.750 0.035 0.500 304.6 108.5 ?

_shelx_res_file
;
TITL ic-235a-dy_a.res in C2/c
    dy-u6.res
    created by SHELXL-2018/3 at 12:05:12 on 14-Sep-2022
REM Old TITL IC-235A-Dy in C2/c #15
REM SHELXT solution in C2/c: R1 0.078, Rweak 0.009, Alpha 0.050
REM <I/s> 1.448 for 356 systematic absences, Orientation as input
REM Formula found by SHELXT: O85 S12 U6 Dy4
CELL 1.54184 24.948 11.8037 26.3449 90 113.339 90
ZERR 4 0.0003 0.0001 0.0003 0 0.001 0
LATT 7
SYMM -X,+Y,0.5-Z
SFAC Dy O S U
UNIT 16 308 48 24

L.S. 21
PLAN  43
SIZE 0.01 0.01 0.02
TEMP -100.15
CONF
BIND O17 U2
BIND O1 U1
list 4
ABIN
MORE -1
fmap 2
acta
OMIT -27 5 9
OMIT -25 3 6
OMIT 23 7 2
OMIT -19 9 13
OMIT 26 4 1
OMIT -28 4 3
OMIT 27 1 2
REM <olex2.extras>
REM <HklSrc "%./Dy-U6.hkl">
REM </olex2.extras>

WGHT    0.023300  620.901489
FVAR       0.03962
U1    4    0.445366    0.560641    0.322517    11.00000    0.01248    0.00936 =
         0.01240    0.00078    0.00659    0.00076
U4    4    0.500000    0.788527    0.250000    10.50000    0.01737    0.01098 =
         0.01828    0.00000    0.01160    0.00000
U2    4    0.500000    0.329392    0.250000    10.50000    0.01426    0.01073 =
         0.01476    0.00000    0.00772    0.00000
U3    4    0.394879    0.558710    0.162412    11.00000    0.01655    0.00985 =
         0.01689    0.00056    0.00989    0.00076
DY1   1    0.284166    0.931223    0.226189    11.00000    0.01257    0.01112 =
         0.01458   -0.00002    0.00565    0.00040
DY2   1    0.571726    0.199224    0.467871    11.00000    0.01922    0.01184 =
         0.01282    0.00055    0.00485    0.00197
S1    3    0.296352    0.612314    0.228540    11.00000    0.01185    0.01453 =
         0.01502    0.00144    0.00618    0.00297
S4    3    0.420985    0.865350    0.337221    11.00000    0.01433    0.01099 =
         0.01378    0.00025    0.00618    0.00161
S6    3    0.437474    0.256693    0.350894    11.00000    0.01458    0.01074 =
         0.01577    0.00152    0.00684   -0.00169
S3    3    0.565347    0.518526    0.456838    11.00000    0.01702    0.01617 =
         0.01263   -0.00088    0.00443    0.00219
S2    3    0.359329    0.860348    0.136884    11.00000    0.02523    0.01189 =
         0.01680    0.00519    0.01019    0.00272
S5    3    0.635407    0.261659    0.367862    11.00000    0.02671    0.01427 =
         0.01804    0.00260    0.01147    0.00803
O1    2    0.388273    0.558312    0.394211    11.00000    0.01648    0.02407 =
         0.01875   -0.00253    0.00804   -0.00364
O4    2    0.450372    0.884623    0.298917    11.00000    0.02730    0.02062 =
         0.02452    0.00189    0.02078    0.00350
O6    2    0.197406    0.862463    0.156019    11.00000    0.01962    0.03456 =
         0.03161   -0.00641    0.00258   -0.00990
O8    2    0.506331    0.554613    0.419187    11.00000    0.01001    0.02563 =
         0.01551    0.00619    0.00071    0.00730
O10   2    0.359539    0.900187    0.310976    11.00000    0.01064    0.02764 =
         0.01846    0.00292    0.00303   -0.00151
O12   2    0.606691    0.539398    0.430105    11.00000    0.01664    0.02848 =
         0.01293    0.00117    0.00478    0.00407
O14   2    0.308782    0.566329    0.182948    11.00000    0.01590
O16   2    0.582011    0.584293    0.507360    11.00000    0.02660    0.02889 =
         0.01654   -0.00811    0.00035   -0.00036
O18   2    0.381268    0.195988    0.333032    11.00000    0.02262    0.02831 =
         0.02347   -0.00743    0.00443   -0.01369
O20   2    0.340333    0.569435    0.281081    11.00000    0.01799
O22   2    0.238307    0.573813    0.223313    11.00000    0.02999    0.01865 =
         0.02235    0.00884    0.01327   -0.00084
O24   2    0.563736    0.399225    0.469074    11.00000    0.04143    0.01688 =
         0.04151   -0.00394    0.02280   -0.00012
O26   2    0.227880    0.839996    0.273359    11.00000    0.04618    0.01945 =
         0.03932    0.00253    0.02929   -0.00532
O28   2    0.426395    0.378671    0.351260    11.00000    0.04699    0.01324 =
         0.03239    0.00519    0.02779    0.00696
O30   2    0.316351    0.902660    0.156809    11.00000    0.02759    0.03984 =
         0.04862   -0.01107    0.02674   -0.00438
O32   2    0.464232    0.232572    0.311249    11.00000    0.01148    0.02238 =
         0.03033    0.00440    0.01539   -0.00010
O34   2    0.659245    0.084867    0.488514    11.00000    0.02919    0.05480 =
         0.02973   -0.00128    0.00339    0.01920
O36   2    0.451473    0.930177    0.387900    11.00000    0.03620    0.04665 =
         0.01007   -0.01597    0.00632   -0.01611
O38   2    0.655865    0.378281    0.364737    11.00000    0.02785    0.02194 =
         0.02426    0.01035    0.00737    0.00975
O40   2    0.419664    0.885686    0.178000    11.00000    0.03195    0.01934 =
         0.03046    0.00226    0.00278   -0.00404
O5    2    0.611576    0.263096    0.410205    11.00000    0.07111    0.02873 =
         0.03685   -0.00305    0.04210   -0.00321
O21   2    0.587215    0.230930    0.313748    11.00000    0.02418    0.02383 =
         0.02630    0.00396    0.00659    0.00801
O11   2    0.548430    0.051536    0.399362    11.00000    0.03120    0.02157 =
         0.04863   -0.01786    0.01545   -0.00303
O23   2    0.352073    0.736922    0.128219    11.00000    0.02626    0.01007 =
         0.02922   -0.00054    0.00536    0.00283
O3    2    0.476401    0.222365    0.406601    11.00000    0.01664    0.04112 =
         0.01825    0.00320    0.00223    0.00819
O25   2    0.560328    0.032070    0.512910    11.00000    0.04638    0.03067 =
         0.05180    0.01581    0.02847    0.01396
O13   2    0.424320    0.744047    0.351455    11.00000    0.04025    0.01553 =
         0.03456    0.00328    0.02612    0.00379
O27   2    0.240961    1.083906    0.159725    11.00000    0.03029    0.03886 =
         0.04119    0.02175    0.00529   -0.00013
O7    2    0.355259    1.075219    0.239013    11.00000    0.01999    0.02866 =
         0.02543    0.00244    0.00949   -0.01087
O29   2    0.517549    0.243110    0.522676    11.00000    0.05714    0.03236 =
         0.02449    0.00352    0.02563    0.01024
O15   2    0.349869    0.912384    0.084046    11.00000    0.07793    0.02512 =
         0.02035    0.00030    0.01928   -0.01504
O31   2    0.683237    0.182769    0.381008    11.00000    0.04638    0.02554 =
         0.03585    0.00217    0.01332    0.01935
O2    2    0.299924    0.734798    0.227705    11.00000    0.03314    0.01445 =
         0.04540   -0.00171    0.01993   -0.00571
O33   2    0.645808    0.261304    0.551181    11.00000    0.05661
O17   2    0.500000    0.094494    0.250000    10.25000    0.01804
PART 2
O35   2    0.434355    0.655507    0.243777    11.00000    0.03176
PART 0
O9    2    0.500000    0.022102    0.250000    10.25000    0.04939    0.01574 =
         0.04837    0.00000    0.02919    0.00000
PART 1
O37   2    0.414564    0.436509    0.243547    11.00000    0.02932
O19   2    0.477346    0.461361    0.183256    11.00000    0.02725
O39   2    0.472655    0.681809    0.164340    11.00000    0.02935
HKLF 4




REM  ic-235a-dy_a.res in C2/c
REM wR2 = 0.1044, GooF = S = 1.091, Restrained GooF = 1.091 for all data
REM R1 = 0.0409 for 6049 Fo > 4sig(Fo) and 0.0538 for all 7131 data
REM 415 parameters refined using 0 restraints

END

WGHT      0.0233    621.1484

REM Highest difference peak  3.293,  deepest hole -2.156,  1-sigma level  0.378
Q1    1   0.4394  0.4754  0.2436  11.00000  0.05    3.29
Q2    1   0.4792  0.6514  0.1902  11.00000  0.05    2.97
Q3    1   0.4090  0.6912  0.2359  11.00000  0.05    2.75
Q4    1   0.4657  0.4365  0.1584  11.00000  0.05    2.46
Q5    1   0.4594  0.5646  0.2910  11.00000  0.05    1.51
Q6    1   0.3780  0.5607  0.1927  11.00000  0.05    1.49
Q7    1   0.6801  0.0544  0.5084  11.00000  0.05    1.48
Q8    1   0.4117  0.6004  0.2645  11.00000  0.05    1.44
Q9    1   0.3497  0.6180  0.2892  11.00000  0.05    1.43
Q10   1   0.5087  0.4951  0.1638  11.00000  0.05    1.41
Q11   1   0.3294  1.0034  0.2328  11.00000  0.05    1.41
Q12   1   0.3967  0.7989  0.2125  11.00000  0.05    1.40
Q13   1   0.5399  0.8593  0.4362  11.00000  0.05    1.38
Q14   1   0.3710  0.5638  0.2427  11.00000  0.05    1.38
Q15   1   0.3713  0.9979  0.2558  11.00000  0.05    1.38
Q16   1   0.5167  0.7910  0.2209  11.00000  0.05    1.35
Q17   1   0.2869  1.0029  0.2243  11.00000  0.05    1.32
Q18   1   0.7090  0.5451  0.4259  11.00000  0.05    1.32
Q19   1   0.5000  0.8678  0.2500  10.50000  0.05    1.31
Q20   1   0.6393 -0.0473  0.5579  11.00000  0.05    1.31
Q21   1   0.4473  0.4676  0.3233  11.00000  0.05    1.30
Q22   1   0.4327  0.6398  0.1449  11.00000  0.05    1.29
Q23   1   0.2130  1.0585  0.1921  11.00000  0.05    1.29
Q24   1   0.3324  0.5189  0.2739  11.00000  0.05    1.29
Q25   1   0.4135  0.5601  0.1335  11.00000  0.05    1.28
Q26   1   0.4572  0.6995  0.3290  11.00000  0.05    1.26
Q27   1   0.4639  0.7389  0.1952  11.00000  0.05    1.26
Q28   1   0.4698  0.3984  0.3416  11.00000  0.05    1.24
Q29   1   0.3317  1.0609  0.1649  11.00000  0.05    1.24
Q30   1   0.5159  0.3317  0.2214  11.00000  0.05    1.23
Q31   1   0.3950  0.3222  0.2194  11.00000  0.05    1.23
Q32   1   0.4790  0.6211  0.2297  11.00000  0.05    1.21
Q33   1   0.5387  0.2131  0.3235  11.00000  0.05    1.20
Q34   1   0.4576  0.8610  0.2415  11.00000  0.05    1.20
Q35   1   0.7147  0.4122  0.3829  11.00000  0.05    1.19
Q36   1   0.6481 -0.0531  0.5875  11.00000  0.05    1.19
Q37   1   0.4410  0.6407  0.3140  11.00000  0.05    1.18
Q38   1   0.3693  0.4001  0.2323  11.00000  0.05    1.18
Q39   1   0.3293  0.1924  0.3201  11.00000  0.05    1.17
Q40   1   0.4886  0.3011  0.5174  11.00000  0.05    1.17
Q41   1   0.4936  0.2372  0.3165  11.00000  0.05    1.17
Q42   1   0.3811  0.5625  0.2748  11.00000  0.05    1.16
Q43   1   0.5681 -0.0828  0.4688  11.00000  0.05    1.16
;
_shelx_res_checksum                18712
_shelx_hkl_file
;
   0   0  -2 4295.87  185.32
   0   0   2 4388.02  184.88
   0   0   3    0.60    0.78
   0   0  -3    1.55    1.36
   0   0   4  335.47   15.71
   0   0  -4  363.06   16.54
   0   0   5    1.39    1.30
   0   0  -5    0.20    2.00
   0   0  -6  964.60   39.59
   0   0   6  814.17   38.40
   0   0  -7    1.79    2.35
   0   0   7   -0.54    1.58
   0   0  -8  176.72    9.77
   0   0   8  141.03    8.56
   0   0   9   -0.24    1.73
   0   0  10 2639.02  114.72
   0   0  11    2.77    2.27
   0   0  11    0.61    1.98
   0   0  12 2483.27  107.61
   0   0  12 2396.71  106.97
   0   0  13    0.76    2.21
   0   0  13    4.34    2.52
   0   0  14 1976.99   89.24
   0   0  14 2022.24   90.02
   0   0  15    5.32    2.25
   0   0  16   60.56    6.93
   0   0  16   52.54    6.52
   0   0  17   -1.59    3.34
   0   0  17   -0.67    2.60
   0   0  17    4.45    2.88
   0   0  18    9.26    4.55
   0   0  18   18.13    4.67
   0   0  18    9.60    4.11
   0   0  19    4.40    3.25
   0   0  19    4.65    3.43
   0   0  19    2.65    4.09
   0   0  20  221.90   15.79
   0   0  20  207.76   16.65
   0   0  20  185.02   15.16
   0   0  21   -1.61    3.88
   0   0  21    2.54    3.16
   0   0  21   -1.86    4.92
   0   0  22    4.94    3.97
   0   0  22    5.15    4.31
   0   0  22    1.85    4.28
   0   0  22    5.74    3.96
   0   0  23    2.44    3.85
   0   0  23    0.89    4.53
   0   0  23    7.34    4.24
   0   0  23    5.09    3.93
   0   0  24  226.46   16.76
   0   0  24  240.86   16.98
   0   0  24  225.10   17.04
   0   0  25    4.49    3.83
   0   0  25    1.40    3.70
   0   0  25    4.29    3.79
   0   0  26   45.04    6.21
   0   0  26   57.07    7.06
   0   0  27    1.83    3.29
   0   0  28  146.84   11.01
   0  -2   0  183.25    8.25
   0  -2   0  183.74    8.55
   0  -2   1    2.01    0.78
   0  -2   1    0.80    0.49
   0  -2   1    1.49    0.83
   0  -2   2  332.21   15.23
   0  -2   2  338.79   15.06
   0  -2   3  505.92   22.70
   0   2  -4  390.21   18.00
   0  -2   4  354.78   17.18
   0   2   5  548.43   24.57
   0   2  -5  580.45   26.02
   0   2  -6  755.59   35.02
   0   2   6  776.29   33.85
   0   2  -7 2096.96   92.43
   0   2   7 2133.61   91.33
   0   2  -8 1295.86   59.20
   0   2   8 1350.17   58.18
   0  -2   9  457.66   22.10
   0   2   9  456.27   21.23
   0   2  -9  432.77   22.06
   0   2  10  304.92   16.18
   0   2  10  313.24   15.38
   0  -2  10  304.58   16.24
   0  -2  10  295.73   15.89
   0   2 -10  296.99   16.08
   0  -2  11    2.13    2.11
   0   2 -11    2.39    1.86
   0   2  11   -0.35    2.13
   0  -2  11    2.03    2.19
   0  -2  12  338.27   18.12
   0   2  12  318.77   17.95
   0  -2  12  327.40   17.81
   0   2 -12  333.69   17.60
   0  -2  13  378.10   20.17
   0  -2  13  343.26   19.75
   0   2 -13  368.05   19.33
   0   2  13  391.92   20.35
   0  -2  14   12.25    3.30
   0  -2  14   16.60    3.82
   0   2 -14   14.77    2.94
   0   2  14   14.97    3.66
   0   2  15    0.56    2.36
   0  -2  15    4.42    2.77
   0  -2  15    1.08    2.66
   0   2  15    2.73    6.05
   0   2  15    9.55    3.20
   0  -2  15    3.13    2.42
   0  -2  16  161.75   11.95
   0  -2  16  176.80   12.47
   0   2  16  154.89   11.73
   0   2  16  169.54   18.12
   0   2  16  152.24   11.95
   0   2  17  352.58   22.05
   0   2  17  368.92   21.93
   0  -2  17  353.94   22.16
   0  -2  17  390.03   22.17
   0   2  18 1906.56   90.61
   0   2  18 1690.25   78.96
   0  -2  18 1691.49   79.06
   0  -2  18 1706.51   79.42
   0   2  18 1605.94   79.00
   0  -2  19  294.75   18.61
   0   2  19  291.93   18.66
   0   2  19  262.37   18.28
   0  -2  19  244.45   18.07
   0   2  20  529.04   29.09
   0   2  20  498.34   28.47
   0  -2  20  460.12   28.25
   0  -2  20  486.38   28.47
   0   2  21  234.09   16.69
   0   2  21  226.29   17.95
   0   2  21  215.07   16.43
   0  -2  21  212.80   16.39
   0  -2  21  217.45   16.36
   0  -2  22  207.29   15.64
   0   2  22  222.99   17.30
   0  -2  22  194.84   15.69
   0   2  22  176.08   15.16
   0   2  22  239.82   16.49
   0   2  23   14.17    5.34
   0  -2  23    7.35    4.28
   0   2  23   14.21    4.96
   0  -2  23   11.91    4.79
   0   2  23   10.64    4.89
   0  -2  23   14.17    4.89
   0   2  24   38.80    5.93
   0  -2  24   42.26    6.32
   0  -2  24   26.35    6.42
   0   2  24   17.76    5.83
   0   2  25   22.83    5.02
   0  -2  25   23.24    5.09
   0  -2  25   17.10    5.32
   0   2  25    7.23    4.38
   0  -2  26   37.45    6.27
   0  -2  26   33.93    5.48
   0   2  26   49.50    6.55
   0   2  26   32.56    6.01
   0  -2  27    3.92    3.37
   0   2  27    3.34    3.09
   0  -2  27   -1.80    3.12
   0   2  27    5.70    3.35
   0  -2  28   62.14    6.58
   0   2  28   71.12    6.54
   0   2  28   78.95    7.34
   0  -2  28   74.95    7.04
   0  -4   0    8.29    1.57
   0  -4   1 2197.66   95.91
   0  -4   1 2283.30   96.23
   0  -4  -1 2236.85   96.41
   0  -4   2  301.78   14.12
   0  -4   2  287.70   13.90
   0  -4   3  212.90   10.29
   0   4   3  192.80    9.01
   0  -4   3  194.33    9.18
   0  -4   4    0.40    1.38
   0   4   4    0.45    0.97
   0  -4   4    1.54    1.14
   0  -4   5  855.44   37.39
   0   4   5  816.48   37.06
   0   4  -5  877.15   39.71
   0  -4   5  820.34   37.85
   0  -4   6    3.83    1.65
   0   4   6    1.94    1.50
   0   4  -6    1.52    2.32
   0  -4   6    2.01    1.91
   0  -4   7   83.98    6.30
   0   4   7   95.05    6.12
   0  -4   7   85.55    6.05
   0   4  -7  104.59    7.59
   0  -4   8   30.52    3.58
   0   4  -8   33.11    4.28
   0  -4   8   29.24    3.91
   0  -4   8   24.26    3.48
   0   4   8   32.73    3.47
   0  -4   9   27.50    3.96
   0  -4   9   22.39    3.53
   0   4   9   21.02    3.14
   0  -4   9   18.69    3.14
   0   4  -9   24.42    3.89
   0   4  10   12.73    2.82
   0  -4  10   15.35    3.22
   0   4 -10   16.19    3.41
   0  -4  10   15.50    2.74
   0  -4  10   10.27    2.52
   0  -4  10   10.12    3.37
   0   4  10   15.69    2.77
   0  -4  11 2850.31  121.39
   0  -4  11 2733.43  120.94
   0   4 -11 2680.71  121.08
   0   4  11 2748.77  121.04
   0   4  11 2774.15  120.81
   0  -4  11 2922.13  123.92
   0  -4  11 2662.76  120.78
   0  -4  12   17.34    3.65
   0   4  12   23.75    3.75
   0   4  12   15.69    3.15
   0   4 -12   17.16    3.62
   0  -4  12   25.71    3.66
   0  -4  12   23.13    3.60
   0   4  13 1456.28   64.26
   0  -4  13 1428.67   64.15
   0  -4  13 1366.70   64.17
   0   4  13 1272.93   70.58
   0   4  13 1409.38   73.56
   0   4 -13 1338.69   63.49
   0   4  13 1403.27   64.28
   0  -4  13 1443.71   64.77
   0   4  14   45.15    5.73
   0  -4  14   43.47    5.44
   0  -4 -14   55.22   13.09
   0   4  14   47.96    5.77
   0  -4  14   53.24    6.18
   0   4  14   60.03   10.87
   0   4  15  634.15   31.58
   0  -4  15  607.28   31.22
   0   4  15  624.11   31.34
   0   4  15  615.14   38.66
   0  -4  15  602.26   31.39
   0  -4  16    0.58    3.09
   0  -4  16    4.27    2.36
   0   4  16    7.97    3.02
   0   4  16    2.92    3.30
   0   4  17   62.32    7.25
   0  -4  17   58.46    7.06
   0  -4  17   55.75    6.97
   0   4  17   44.70    6.48
   0  -4  18   49.50    6.73
   0   4  18   47.95    6.74
   0   4  18   58.84    7.32
   0  -4  18   54.44    7.25
   0   4  19   18.88    4.90
   0  -4  19   12.44    4.29
   0  -4  19   14.74    4.60
   0   4  19   20.31    4.78
   0  -4  20    9.41    3.78
   0   4  20    3.72    3.22
   0   4  20   11.56    4.42
   0  -4  20    6.75    4.04
   0   4  21  259.96   17.87
   0  -4  21  281.34   18.05
   0  -4  21  246.76   17.63
   0   4  21  263.91   17.71
   0  -4  22    0.72    3.48
   0   4  22    4.12    4.87
   0   4  22    2.16    3.68
   0  -4  23  196.40   15.96
   0   4  23  190.11   14.13
   0   4  23  184.25   15.77
   0  -4  23  168.87   13.66
   0   4  24    5.36    4.96
   0   4  24    3.22    3.73
   0  -4  24    7.08    4.44
   0  -4  24    5.16    3.94
   0  -4  25  849.99   42.37
   0  -4  25  825.50   44.41
   0   4  25  888.21   42.56
   0   4  25  850.32   44.47
   0   4  26    0.48    2.98
   0   4  26   -2.74    3.85
   0  -4  26    3.42    2.99
   0  -4  26    1.40    3.69
   0   4  27  166.64   12.00
   0  -4  27  159.78   11.98
   0   4  28   11.47    3.12
   0  -4  28    6.99    2.97
   0  -6   0 2500.04  108.51
   0  -6   1  792.42   37.99
   0  -6  -1  828.01   37.41
   0  -6   1  823.95   37.07
   0  -6   2  457.36   21.90
   0  -6   2  470.54   23.07
   0  -6  -2  463.51   22.55
   0  -6   3 1051.37   48.09
   0  -6  -3 1047.30   47.71
   0  -6  -4  292.78   15.46
   0  -6   4  274.95   15.43
   0   6  -5 1573.14   71.82
   0  -6   5 1466.91   69.12
   0  -6  -5 1610.57   69.46
   0  -6   6  550.06   28.80
   0   6  -6  653.67   31.57
   0   6  -7 3395.24  150.48
   0  -6   8  251.84   15.19
   0   6  -8  274.05   16.60
   0  -6   9   62.94    5.30
   0  -6   9   60.17    6.75
   0   6   9   48.58    9.16
   0   6   9   57.08   10.08
   0   6  -9   70.32    7.40
   0  -6  -9   71.98    9.60
   0   6  10   47.38    9.08
   0  -6  10   39.55    4.51
   0   6 -10   49.36    6.17
   0  -6  10   41.08    5.82
   0   6  10   41.97    8.76
   0  -6 -10   28.66    6.94
   0   6 -11    3.46    2.85
   0   6  11    6.93    5.68
   0  -6  11   13.31    3.97
   0   6  11    9.42    6.10
   0  -6 -11    8.66    6.32
   0  -6  11    4.14    2.38
   0   6  12  117.02   15.66
   0  -6  12  157.39   10.86
   0  -6 -12  153.11   17.69
   0   6  13  292.52   24.74
   0  -6  13  278.02   17.05
   0  -6  13  348.03   22.02
   0  -6 -13  275.80   26.29
   0  -6  14   25.07    4.27
   0   6  14   19.81    7.84
   0  -6 -14   19.22    9.72
   0   6  15    7.83    8.00
   0  -6  15   -0.55    3.23
   0  -6 -15   -2.37    9.16
   0  -6  16  158.35   11.63
   0  -6 -16  108.18   19.43
   0   6  16  141.90   17.56
   0  -6 -17  321.61   31.54
   0   6  17  366.59   28.45
   0  -6  17  333.60   20.06
   0   6  18  484.76   35.72
   0  -6 -18  477.18   37.93
   0  -6  18  533.55   28.00
   0  -6  19   74.39    7.94
   0   6  19   82.17   13.68
   0  -6  20  409.64   26.25
   0   6  20  422.79   30.66
   0  -6  20  370.58   22.25
   0  -6  21  218.12   17.47
   0   6  22  179.76   15.90
   0  -6  22  203.01   16.23
   0   6  23  112.15   11.53
   0  -6  23  105.08   11.14
   0   6  24   79.79    9.39
   0  -6  24   90.09    9.47
   0  -6  25    4.64    3.45
   0   6  25    5.37    4.15
   0  -6  26    5.98    3.08
   0   6  26   12.57    3.64
   0   6  27    6.49    2.52
   0   8   0 2820.26  137.12
   0  -8   0 2908.50  127.79
   0  -8  -1   20.23    4.13
   0  -8  -1   21.89    3.51
   0   8   1   21.77    7.87
   0  -8   1   29.17    4.59
   0  -8  -2  672.95   33.91
   0   8   2  738.04   44.46
   0   8  -2  689.41   42.99
   0  -8   2  747.87   35.46
   0   8  -3    5.46    5.11
   0   8   3    6.05    5.85
   0  -8   3    4.07    2.51
   0  -8  -3    8.93    2.82
   0  -8  -4  225.21   13.25
   0   8   4  202.26   20.12
   0   8   4  185.83   18.72
   0   8  -4  206.33   16.07
   0  -8   4  184.39   13.13
   0   8  -5    7.85    4.21
   0   8   5    2.88    5.39
   0   8   5    3.21    6.21
   0  -8   5    8.10    3.43
   0  -8  -5    3.45    2.34
   0  -8  -6  140.25   10.42
   0   8   6  109.85   15.21
   0  -8   6  141.31   10.84
   0   8  -6  132.65   12.33
   0   8   6  135.70   16.43
   0   8  -7   15.98    5.23
   0  -8  -7   12.38    3.53
   0   8   7   22.00    8.19
   0   8   7   15.53    8.18
   0  -8   8  126.98   10.39
   0  -8  -8  101.85    9.22
   0   8   8  132.25   16.97
   0   8  -8   79.14    9.90
   0   8   8  122.36   15.99
   0   8   9    7.38    6.67
   0  -8  -9   22.68    7.63
   0   8  -9    5.62    3.57
   0   8   9   15.17    8.46
   0  -8  -9   10.36    3.61
   0  -8   9    7.63    3.81
   0   8  10  133.24   18.16
   0  -8  10  139.56   12.10
   0  -8 -10  137.90   11.76
   0   8  10  142.11   17.70
   0  -8  10  158.61   13.73
   0  -8 -10  138.57   16.29
   0  -8  11   50.41    8.58
   0   8  11   44.91   11.81
   0  -8 -11   38.40    6.44
   0  -8  11   67.12    8.58
   0  -8 -11   54.76   11.62
   0   8  11   65.60   12.98
   0  -8  12  968.20   48.73
   0  -8 -12  795.32   45.91
   0  -8 -12  979.17   57.09
   0   8  12  927.47   57.48
   0  -8  12  903.70   47.91
   0   8  12  992.64   57.07
   0   8  13   10.00    8.63
   0  -8 -13   -4.29    9.93
   0  -8  13   -1.05    4.96
   0  -8 -13    5.27    4.06
   0  -8  13   -0.97    4.09
   0   8  13    7.27    8.23
   0   8  14 1033.28   60.28
   0   8  14 1030.32   62.22
   0  -8 -14 1059.80   66.44
   0  -8  14 1018.78   52.60
   0  -8 -14  937.58   51.58
   0  -8 -15    2.98    3.84
   0  -8 -15   13.64   12.07
   0  -8  15   11.88    4.97
   0   8  15    5.39    7.94
   0  -8 -16   41.45    7.82
   0   8  16   43.98   10.84
   0  -8 -16   13.70   12.77
   0  -8  16   32.67    7.24
   0  -8  17    5.88    5.10
   0   8  17   -1.70    6.78
   0  -8 -17   -7.37   11.37
   0  -8  18  161.02   14.84
   0  -8 -18  184.91   21.96
   0   8  18  174.27   19.24
   0  -8  19   11.06    4.65
   0   8  19   12.28    7.71
   0  -8  20  302.04   20.64
   0   8  21   18.33    5.51
   0  -8  21   16.74    5.81
   0  -8  22   27.70    5.61
   0  -8  23    3.04    3.52
   0  -8  24   86.29    7.85
   0  -8  25    8.03    2.68
   0  10   0  583.23   41.97
   0 -10   0  584.03   31.79
   0 -10  -1  125.00   11.03
   0  10  -1  108.29   13.75
   0  10  -1  106.09   16.21
   0  10   1  107.54   17.23
   0 -10   1  145.48   11.60
   0  10   2  529.90   39.49
   0 -10   2  494.94   28.74
   0  10  -2  534.62   37.64
   0  10  -2  457.36   32.50
   0 -10  -2  550.97   29.33
   0  10   3  125.70   18.42
   0 -10   3  110.46   10.71
   0  10  -3  117.21   13.71
   0 -10  -3  109.25   10.66
   0  10  -3  110.61   15.48
   0  10   4  575.63   43.68
   0  10  -4  593.28   37.11
   0 -10   4  653.65   34.34
   0 -10  -4  627.01   34.10
   0  10   5  969.45   61.51
   0  10  -5  934.34   52.77
   0 -10  -5 1045.24   50.60
   0  10   6  581.66   43.49
   0  10  -6  568.49   34.85
   0 -10   6  573.74   32.85
   0 -10  -6  633.81   33.70
   0  10   7  529.17   41.24
   0 -10   7  539.02   31.08
   0 -10  -7  591.49   38.27
   0  10   7  543.47   38.43
   0  10   8  164.17   19.68
   0 -10  -8  180.45   19.42
   0 -10   8  193.86   14.77
   0  10   8  162.23   21.67
   0  10   9   10.51    7.40
   0  10   9   13.22    8.79
   0 -10  -9   28.47    9.45
   0 -10   9   17.08    5.39
   0  10  10   11.02    9.53
   0  10  10   24.33    9.66
   0 -10  10   12.66    5.56
   0 -10 -10   15.96    8.41
   0 -10 -11  112.30   16.93
   0  10  11  127.83   16.89
   0  10  11  111.46   17.83
   0 -10  11   92.15   11.11
   0  10  12  435.47   32.76
   0  10  12  439.47   36.33
   0 -10  12  432.55   28.48
   0 -10 -12  467.46   36.82
   0  10  13  155.72   18.25
   0  10  13  145.13   20.32
   0 -10 -13  208.69   23.78
   0  10  14    1.51    6.19
   0 -10 -14   -2.26    8.46
   0 -10 -15   21.58   10.84
   0  10  15    9.98    6.77
   0 -10 -16   -3.71    7.38
   0  10  16    1.33    5.58
   0  10  17    1.22    5.64
   0 -10 -17    4.27    6.59
   0  10  18  308.26   19.29
   0 -10  18  304.15   18.91
   0  10  19   27.92    5.09
   0 -10  19   27.59    4.75
   0  10  20   59.60    6.42
   0  10  21    3.96    2.45
   0 -12   0   33.83    5.89
   0  12   0   42.53   10.34
   0  12   1  198.30   21.56
   0 -12  -1  193.92   14.66
   0 -12   2   27.76    5.87
   0 -12  -2   19.01    4.89
   0  12   2   28.91   10.57
   0 -12   3    4.07    3.93
   0  12   3    4.01    7.98
   0 -12  -3    2.25    3.83
   0  12   4    6.11    8.80
   0 -12  -4    9.31    4.32
   0 -12   4   10.59    4.47
   0 -12  -4   10.24    7.73
   0  12   5  710.48   49.04
   0 -12   5  695.67   39.09
   0 -12  -5  775.14   47.67
   0 -12  -5  766.54   39.60
   0 -12   6   77.10    9.37
   0 -12  -6   75.85   13.92
   0 -12  -6   83.68    9.86
   0  12   6   71.74   14.77
   0 -12  -7  501.28   29.27
   0  12   7  519.74   37.71
   0 -12   7  425.82   27.75
   0 -12  -7  528.69   36.66
   0  12   8   51.92   12.28
   0 -12  -8   45.20   11.46
   0 -12   8   42.03    7.51
   0 -12  -8   44.03    8.22
   0  12   9  290.83   26.05
   0 -12  -9  252.29   25.79
   0 -12   9  228.33   18.73
   0 -12 -10    6.38    5.04
   0 -12  10    7.68    5.33
   0 -12 -10    5.78    8.72
   0 -12 -11  244.32   25.82
   0 -12 -11  289.70   21.78
   0 -12 -12   10.11    5.96
   0 -12 -12   11.35    8.96
   0 -12 -13  436.15   28.33
   0 -12 -13  387.14   31.71
   0 -12 -14   62.36   11.47
   0 -12 -14   72.55   10.22
   0 -12 -15   92.06   10.85
   0 -14   0  351.20   22.01
   0 -14   0  414.49   30.74
   0 -14  -1  435.96   32.73
   0 -14   1  392.45   23.82
   0 -14  -2  195.96   21.74
   0 -14   2  157.87   12.96
   0 -14  -3    3.83    8.27
   0 -14  -3    5.34    3.23
   0 -14   3    4.27    3.89
   0 -14   4    9.26    6.33
   0 -14  -4   -2.02    8.74
   0 -14  -5  150.75   20.66
   0 -14   5   90.84   11.53
   0 -14  -6   35.12   13.51
   0 -14   6   42.23    7.69
   0 -14  -7  371.69   32.69
   0 -14   7  273.11   19.30
   0 -14  -8   31.64   11.47
   0 -14   8   11.30    3.76
  -1   1  29   16.08    3.46
  -1  -1  28    0.46    1.78
  -1   1  28   95.12    7.77
  -1   1  27    5.02    3.10
  -1  -1  27    4.24    3.47
  -1   1  27    7.58    3.72
  -1  -1  26  405.79   24.80
  -1   1  26  424.61   24.97
  -1   1  26  446.50   25.19
  -1   1  25   92.99   10.02
  -1   1  25   90.17    9.50
  -1  -1  25   89.40    9.98
  -1   1  24  440.34   26.33
  -1  -1  24  416.07   26.36
  -1   1  24  424.16   25.27
  -1   1  24  489.74   27.76
  -1   1  23    8.08    4.26
  -1   1  23    6.47    4.69
  -1   1  23    4.61    4.28
  -1   1  23    7.64    4.11
  -1   1  22    2.97    3.37
  -1   1  22    4.02    3.96
  -1   1  22    1.88    4.36
  -1   1  22    5.09    4.01
  -1   1  21   28.30    6.57
  -1   1  21   19.06    5.14
  -1   1  21   24.29    5.88
  -1  -1  21   19.04    5.62
  -1   1  20  381.36   23.97
  -1   1  20  356.24   22.01
  -1  -1  20  321.58   22.22
  -1   1  20  331.05   21.76
  -1   1  19  508.38   29.05
  -1   1  19  524.86   29.39
  -1  -1  19  522.15   30.29
  -1  -1  18  525.77   29.75
  -1   1  18  490.43   28.54
  -1   1  18  534.94   28.76
  -1  -1  17    2.89    2.79
  -1  -1  17    0.73    3.16
  -1   1  17    3.06    2.77
  -1   1  16   12.51    6.72
  -1  -1  16    7.39    3.25
  -1   1  16   11.23    3.81
  -1  -1  15   72.91    6.93
  -1   1  15   82.27    7.36
  -1   1  15   67.95    6.41
  -1   1  14  342.61   18.97
  -1   1  14  328.24   18.00
  -1  -1  14  335.24   18.61
  -1  -1  13  682.68   32.34
  -1   1  13  641.52   31.55
  -1   1  13  634.33   32.33
   1   1 -13  690.69   32.49
   1   1 -12  887.61   41.04
  -1   1  12  875.87   40.10
  -1   1  12  847.32   40.78
  -1  -1  12  871.69   40.73
  -1  -1  11  572.15   27.95
  -1   1  11  591.72   28.15
  -1  -1  11  581.71   27.93
  -1   1  11  571.87   27.32
   1   1 -11  581.87   28.34
  -1   1  10    6.94    2.01
  -1  -1  10   12.56    2.57
   1   1 -10    9.04    2.78
  -1  -1   9  138.85    8.33
   1   1  -9  123.85    8.41
  -1   1   9  138.79    7.82
  -1   1   8 1362.68   57.94
   1   1  -8 1213.17   58.64
  -1  -1   8 1366.84   58.37
  -1   1   7    5.07    1.46
  -1  -1   7    7.15    1.92
   1   1  -7    4.47    2.29
   1   1  -6 1648.32   74.54
  -1  -1   6 1691.85   73.95
  -1   1   6 1750.71   73.57
   1   1  -5  179.12    9.76
   1   1  -4  232.65   11.81
   1   1  -3  791.82   35.32
   1  -1  -2  700.47   30.13
   1   1  -2  717.24   31.28
   1  -1  -1  100.08    4.85
   1   1   0 1615.25   66.48
   1  -1   0 1371.22   66.61
   1   1   0 1651.91   66.58
   1   1   0 1439.53   66.64
   1  -1   0 1671.00   66.86
   1  -1   0 1635.45   66.60
   1  -1   1  373.46   16.11
   1   1   1  357.40   16.06
  -1   1  -2  438.10   19.15
   1   1   2  424.25   19.21
  -1   1  -3    2.98    1.12
  -1   1  -4  114.38    6.42
   1  -1   4  137.80    6.93
   1   1   5  412.40   19.14
   1  -1   5  452.70   19.72
  -1   1  -5  401.25   19.19
   1  -1   6  443.33   19.75
   1   1   6  408.44   19.17
  -1   1  -6  394.54   19.26
   1  -1   7   57.91    4.59
   1   1   7   57.94    4.22
  -1   1  -7   56.08    4.41
   1  -1   8  185.58   10.66
  -1   1  -8  195.69   10.43
   1   1   8  189.73   10.29
   1  -1   9  198.75   11.26
  -1   1  -9  191.31   10.84
   1   1   9  202.64   10.90
  -1   1 -10  988.58   44.99
   1   1  10 1010.24   45.79
   1  -1  10  936.43   45.40
   1  -1  10 1045.80   45.67
   1  -1  11  187.35   11.47
   1   1  11  185.41   11.55
   1   1  12  957.34   44.81
   1  -1  12  942.88   44.47
   1   1  13  265.90   15.37
   1   1  13  229.96   14.68
   1   1  14  358.12   20.75
   1   1  14  376.32   20.79
   1   1  15    9.47    3.11
   1   1  15    1.32    5.72
   1   1  15    8.78    3.11
   1   1  16   33.39    8.84
   1   1  16   41.83    5.71
   1  -1  16   36.29    6.13
   1   1  16   33.85    5.46
   1   1  17   62.68   11.83
   1   1  17   55.82    6.98
   1  -1  17   50.96    7.52
   1   1  17   53.28    7.10
   1   1  18   12.70    4.36
   1   1  18   19.10    5.45
   1   1  18    9.63    3.90
   1   1  19   85.56    9.27
   1   1  19   96.17    9.82
   1   1  19  100.15   11.17
   1   1  19   80.95    9.12
   1  -1  20    1.82    3.72
   1   1  20   -2.24    4.20
   1   1  20    7.87    4.68
   1   1  20    2.90    4.18
   1   1  20    0.82    3.45
   1   1  21    0.81    3.99
   1   1  21   -0.76    4.03
   1   1  21    1.68    3.72
   1  -1  21   -2.66    3.83
   1  -1  21    3.60    3.98
   1   1  21    9.74    4.89
   1   1  22    2.88    4.34
   1   1  22   -1.68    4.23
   1   1  22    2.25    3.69
   1   1  22    4.08    4.66
   1  -1  22    8.91    4.86
   1  -1  22    8.62    4.85
   1   1  23   16.49    5.77
   1   1  23   18.48    5.24
   1  -1  23   19.08    5.13
   1  -1  23   15.65    5.28
   1   1  23    9.15    4.40
   1  -1  24    9.82    5.00
   1   1  24    6.17    4.01
   1   1  24    0.84    4.47
   1   1  25   57.11    7.83
   1  -1  25   66.92    8.27
   1   1  25   78.50    8.53
   1   1  26   23.44    4.76
   1  -1  26   19.87    4.87
   1   1  26   31.93    5.72
   1   1  27   10.12    3.64
   1   1  27    7.49    3.10
   1  -1  27    0.47    1.70
   1   1  28    3.66    2.87
  -1  -3  29   89.83    7.00
  -1   3  29   76.70    6.06
  -1  -3  28   28.12    4.75
  -1  -3  28   24.09    4.03
  -1   3  28   22.15    4.04
  -1   3  28   24.68    4.08
  -1  -3  27   -0.66    3.31
  -1   3  27    0.61    3.29
  -1   3  27   -2.16    3.04
  -1  -3  27    3.71    2.94
  -1   3  26    2.21    3.77
  -1  -3  26    1.53    3.70
  -1  -3  26    5.46    2.93
  -1   3  26    2.48    3.28
  -1   3  25    5.04    4.06
  -1  -3  25    6.72    3.95
  -1  -3  25    0.85    3.93
  -1   3  25    7.55    4.14
  -1  -3  24  130.67   11.17
  -1   3  24  118.33   10.84
  -1   3  24  118.41   11.94
  -1   3  23    0.76    3.83
  -1   3  23    3.91    4.72
  -1  -3  23    2.26    3.56
  -1   3  22   16.20    5.05
  -1  -3  22   12.86    4.72
  -1  -3  22   22.93    5.57
  -1   3  22   23.35    5.50
  -1   3  21  610.66   33.88
  -1  -3  21  656.43   34.08
  -1  -3  21  552.87   33.31
  -1   3  21  639.07   33.88
  -1  -3  20  201.58   14.88
  -1   3  20  195.74   14.68
  -1  -3  20  185.07   14.85
  -1   3  20  207.76   15.31
  -1   3  19  385.24   30.33
  -1  -3  19  383.71   23.61
  -1   3  19  398.36   23.99
  -1   3  19  426.85   24.10
  -1  -3  19  402.94   24.13
  -1  -3  18  139.19   11.26
  -1  -3  18  135.21   11.42
  -1   3  18  145.66   11.58
  -1   3  18  129.09   11.41
   1  -3 -17  437.08   32.88
  -1  -3  17  503.22   26.74
  -1   3  17  489.26   26.46
  -1  -3  17  475.66   26.62
  -1   3  17  459.81   26.43
  -1   3  16  212.67   14.23
   1  -3 -16  219.79   21.75
  -1  -3  16  212.14   14.54
  -1  -3  16  221.25   14.39
  -1   3  16  204.51   14.24
  -1  -3  16  220.22   14.72
   1   3 -15  201.49   13.42
  -1  -3  15  227.83   14.29
  -1   3  15  228.84   14.42
  -1  -3  15  241.22   14.86
  -1  -3  14  216.92   13.59
  -1  -3  14  207.64   13.15
  -1   3  14  199.17   13.17
   1   3 -14  203.63   12.94
  -1  -3  13 1464.50   68.59
   1   3 -13 1555.98   69.16
  -1   3  13 1533.68   68.93
  -1   3  12    6.45    2.24
  -1  -3  12    6.29    2.30
   1   3 -12    3.85    2.24
   1   3 -11  713.31   32.92
  -1  -3  11  624.68   31.67
  -1  -3  11  665.98   34.45
  -1   3  11  689.09   32.10
   1   3 -10    3.01    2.18
   1   3  -9  346.71   18.44
   1   3  -8 1873.25   83.06
  -1  -3   8 1873.41   82.21
   1  -3  -7 1392.94   60.22
   1   3  -7 1427.22   63.07
  -1  -3   7 1413.65   61.99
   1   3  -6  822.98   37.68
   1  -3  -6  802.34   34.61
  -1  -3   6  792.77   36.17
  -1  -3   5 1002.56   45.02
   1   3  -5 1047.84   46.68
   1   3  -4  300.86   16.23
  -1  -3   4  309.91   14.64
  -1  -3   3    8.43    1.57
  -1  -3   2    0.46    0.77
  -1  -3   2   -0.40    1.02
  -1  -3   1 2974.47  126.02
   1  -3  -1 2925.66  126.50
   1  -3   0 1107.01   48.24
  -1  -3  -1  865.33   39.62
   1  -3   1  965.77   39.82
   1   3   1  980.03   39.73
   1  -3   1  984.87   40.80
   1  -3   2  177.18    8.58
   1   3   2  168.64    7.99
   1  -3   2  158.15    8.02
   1  -3   2  178.15    8.76
   1  -3   3  589.58   26.41
   1   3   3  571.58   26.29
   1  -3   3  632.19   27.02
   1  -3   4    2.46    1.63
   1   3   4    1.89    1.32
   1  -3   4    1.40    1.31
  -1   3  -4    3.21    2.21
   1  -3   5 1721.13   78.16
   1  -3   5 1799.37   77.96
   1   3   5 1821.21   77.88
  -1   3  -5 1826.72   78.70
   1  -3   6  591.21   27.37
  -1   3  -6  588.11   27.76
   1  -3   6  584.61   27.55
   1   3   6  592.88   27.29
   1   3   7 2960.73  127.62
   1  -3   7 2977.72  127.80
  -1   3  -7 3024.07  127.83
   1  -3   7 2841.91  127.53
   1  -3   8   19.75    2.94
   1   3   8   21.65    3.16
   1  -3   8   27.43    3.60
  -1   3  -8   17.42    2.97
   1   3   9  360.78   18.25
   1  -3   9  324.49   17.96
  -1   3  -9  359.60   18.01
   1  -3   9  357.07   19.70
   1  -3  10   47.12    4.90
  -1   3 -10   50.37    4.80
   1   3  10   42.49    4.76
   1  -3  10   55.85    5.13
   1   3  10   63.30    5.43
   1  -3  10   51.86    6.86
  -1   3 -11  111.90    7.73
   1  -3  11  102.53    8.01
   1  -3  11  109.69    8.18
   1   3  11  125.37    8.55
   1   3  11  120.94    8.49
  -1   3 -12    6.33    2.03
   1   3  12   13.55    3.10
   1  -3  12    6.95    2.78
   1  -3  12   11.95    3.02
   1   3  12    5.75    2.55
   1  -3  13    8.02    2.78
   1   3  13    2.44    2.32
   1  -3  13    2.70    2.43
   1   3  13   11.63    3.31
   1  -3  14  246.49   15.13
   1   3  14  245.48   15.31
   1   3  14  239.40   15.12
   1  -3  14  226.72   14.69
   1   3  14  247.14   21.44
   1   3  15  202.34   13.67
   1   3  15  184.39   19.17
   1  -3  15  192.16   13.25
   1   3  15  197.29   13.50
   1  -3  15  208.37   13.72
   1   3  16   34.39    5.51
   1  -3  16   47.51    6.30
   1   3  16   36.68    5.69
   1  -3  16   30.44    5.53
   1   3  17  227.27   16.30
   1   3  17  243.97   22.87
   1  -3  17  248.47   16.34
   1  -3  17  238.71   16.37
   1   3  17  260.65   16.70
   1   3  18   15.78    8.24
   1  -3  18   11.73    4.12
   1  -3  18   19.45    4.41
   1   3  18   18.77    5.03
   1   3  18   25.29    5.04
   1   3  19  217.45   15.94
   1   3  19  248.34   23.06
   1  -3  19  236.31   16.30
   1  -3  19  207.52   15.72
   1   3  19  212.56   16.03
   1   3  20  101.05   10.00
   1  -3  20   87.83    9.76
   1   3  20   80.08    9.38
   1  -3  20  109.17   10.43
   1  -3  21  188.00   14.87
   1  -3  21  176.73   14.64
   1   3  21  196.11   15.30
   1   3  21  206.23   15.48
   1   3  21  207.92   17.08
   1  -3  21  201.06   16.63
   1  -3  22   -2.30    4.05
   1   3  22    3.99    4.91
   1  -3  22   -3.14    3.79
   1  -3  22    2.92    4.79
   1   3  22   -1.54    4.00
   1   3  22    0.78    3.38
   1   3  23    5.97    4.08
   1  -3  23    1.88    4.44
   1  -3  23    2.22    3.85
   1   3  23    6.63    4.38
   1  -3  24    2.63    3.98
   1   3  24    9.60    4.55
   1  -3  24    7.65    3.69
   1   3  24    9.15    4.31
   1  -3  25   45.47    6.41
   1  -3  25   36.20    6.45
   1   3  25   48.14    6.48
   1   3  25   49.73    7.25
   1  -3  26   30.29    4.80
   1  -3  26   32.48    5.48
   1   3  26   21.66    5.14
   1   3  26   31.35    4.90
   1  -3  27    8.30    2.71
   1  -3  27    3.81    3.17
   1   3  27    6.70    2.84
   1   3  27    7.77    3.25
   1  -3  27    7.07    2.84
   1   3  27    3.14    2.38
   1  -3  28   -0.39    2.28
   1   3  28    1.44    1.77
  -1   5  28   90.38    7.55
  -1  -5  28   98.52    7.93
  -1   5  27   81.59    8.01
  -1   5  26    4.07    3.47
  -1  -5  25  361.83   21.17
  -1   5  25  436.56   24.76
  -1   5  24  101.62    9.14
  -1   5  24  126.35   12.10
  -1  -5  24  105.04    9.33
  -1   5  23  168.25   12.90
  -1  -5  23  195.92   15.91
  -1   5  23  202.68   16.53
  -1  -5  23  182.93   13.35
  -1  -5  22    7.19    3.68
  -1   5  22   -2.50    3.52
  -1  -5  21   73.96    8.70
  -1  -5  21   87.51    9.02
  -1   5  21   86.55    8.87
  -1   5  20   48.82    6.74
  -1  -5  20   58.06    7.28
  -1  -5  20   62.04    7.48
  -1   5  20   54.96   11.66
   1  -5 -19  395.69   32.46
  -1   5  19  450.95   32.78
  -1  -5  19  435.50   25.75
  -1   5  19  480.50   25.81
  -1  -5  19  462.63   25.75
  -1   5  18    1.51    6.51
  -1  -5  18    2.56    3.38
  -1  -5  18    0.67    2.88
  -1   5  18   -0.62    3.07
   1  -5 -18   -1.88    6.78
  -1   5  18    1.29    2.70
  -1  -5  17   12.69    3.85
  -1   5  17   17.86    4.37
  -1  -5  17   23.12    4.68
  -1   5  17   17.24    4.10
  -1   5  17   35.32    9.24
   1  -5 -17   12.43    9.62
  -1   5  16   28.41    9.19
  -1   5  16   33.69    5.42
  -1  -5  16   37.78    5.47
  -1   5  16   26.21    4.76
  -1  -5  16   35.20    5.32
   1  -5 -16   17.64   10.51
  -1  -5  15  799.88   39.10
  -1   5  15  790.50   39.08
  -1  -5  15  801.66   39.24
   1  -5 -15  766.74   52.75
  -1   5  15  807.98   39.00
  -1   5  15  682.01   45.25
  -1  -5  14  153.91   11.39
  -1   5  14  172.53   11.63
  -1  -5  14  169.40   11.60
  -1   5  14  133.26   16.67
  -1   5  14  135.24   15.87
   1  -5 -14  155.19   20.54
  -1   5  14  170.13   11.58
  -1  -5  14  171.65   12.09
   1  -5 -13 2356.71  112.68
  -1   5  13 2284.89   98.73
  -1  -5  13 2284.51  102.73
  -1  -5  13 2200.71   98.54
  -1   5  13 2015.17  105.80
  -1  -5  13 2219.48   98.75
  -1  -5  13 2137.38   99.24
   1   5 -13 2187.42   99.21
  -1  -5  12    6.29    2.71
  -1   5  12   10.43    5.82
   1  -5 -12   14.11    7.59
   1   5 -12   11.07    3.43
  -1   5  12    7.60    2.66
  -1  -5  12    8.70    2.93
  -1  -5  12    7.15    3.62
  -1  -5  12    8.78    3.00
  -1  -5  11 1181.79   52.82
  -1   5  11 1142.32   52.59
  -1  -5  11 1193.16   54.48
   1   5 -11 1126.28   53.96
  -1   5  11  951.24   59.00
  -1  -5  11 1116.41   53.31
  -1  -5  11 1192.66   52.97
  -1  -5  10   47.36    5.16
  -1  -5  10   50.46    4.97
   1   5 -10   56.77    6.35
  -1   5  10   50.63    4.86
  -1  -5  10   37.43    5.24
  -1   5   9   62.09    5.10
  -1  -5   9   51.34    5.60
   1   5  -9   67.86    6.83
  -1  -5   9   60.21    5.55
  -1  -5   9   52.07    4.92
  -1   5   8   86.78    6.17
   1   5  -8   94.59    8.19
  -1  -5   8   99.60    7.21
  -1  -5   8   96.71    6.62
  -1   5   7  145.17    8.07
  -1  -5   7  133.79    8.86
  -1  -5   7  134.02    8.25
  -1  -5   6  161.92    8.72
   1   5  -6  176.05   11.85
  -1  -5   6  165.25    9.66
  -1   5   6  152.34    8.27
   1   5  -5   17.19    4.01
  -1  -5   5   13.41    1.78
  -1  -5   5   16.68    2.68
   1  -5  -4    6.26    2.09
  -1  -5   4    2.90    0.55
  -1  -5   4    5.02    1.78
  -1  -5   3  324.15   15.97
  -1  -5   3  358.40   16.75
   1  -5  -3  360.28   17.24
  -1  -5   2   32.62    2.86
  -1  -5   2   34.04    2.81
   1  -5  -2   31.17    3.38
  -1  -5   1 1690.95   73.18
   1  -5  -1 1677.61   73.76
  -1  -5   0  444.74   20.71
   1  -5   0  440.68   20.98
  -1  -5  -1 1040.60   46.68
   1  -5   1 1062.40   46.75
   1  -5   2   32.41    3.15
  -1  -5  -2   38.11    3.58
   1  -5   4  266.56   12.45
  -1   5  -5  181.49   11.62
   1  -5   5  180.93   10.59
   1  -5   5  164.58    8.79
   1   5   5  160.16    8.48
  -1   5  -6  193.56   11.98
   1   5   6  154.69    8.88
   1  -5   6  168.27    9.46
   1  -5   6  166.03   10.95
   1  -5   7  572.99   28.43
   1   5   7  541.51   26.73
  -1   5  -7  612.81   29.21
   1  -5   7  584.90   27.29
  -1   5  -8   47.70    5.43
   1  -5   8   35.24    4.87
   1  -5   8   54.47    4.91
   1   5   8   44.07    4.43
  -1   5  -9    8.68    2.95
   1  -5   9    9.52    3.33
   1  -5   9    8.61    2.84
   1   5   9    6.44    2.36
  -1   5 -10   31.66    4.30
   1  -5  10   34.96    4.55
   1  -5  10   28.22    5.14
   1  -5  10   38.14    4.77
   1   5  10   32.24    4.15
   1   5  11  167.43   17.23
   1  -5  11  207.86   13.08
  -1   5 -11  204.67   12.68
   1   5  11  206.13   12.75
   1  -5  11  232.35   15.63
   1  -5  11  213.42   13.11
   1   5  11  167.67   17.49
   1  -5  12  144.02   13.27
   1   5  12  123.63   14.77
   1   5  12  140.12   10.26
   1  -5  12  166.01   10.93
   1   5  12  132.85   15.32
  -1  -5 -12  113.06   14.92
   1  -5  12  158.57   10.95
   1   5  13  101.56   14.04
   1   5  13  113.23    9.34
  -1  -5 -13  121.61   16.54
   1  -5  13  134.65    9.82
   1   5  13   89.73   13.02
   1  -5  13  133.39    9.96
   1   5  13  111.55    9.24
   1  -5  14  366.04   20.42
   1   5  14  330.95   26.96
   1   5  14  313.86   25.91
  -1  -5 -14  270.31   28.43
   1  -5  14  358.78   20.43
   1   5  14  349.61   20.06
   1   5  14  354.43   20.12
   1  -5  15   13.15    3.54
   1   5  15    7.42    6.10
   1   5  15   15.85    3.91
   1  -5  15   14.68    4.08
   1   5  15    6.33    3.18
   1   5  16   17.31    4.24
   1  -5  16   18.91    4.23
   1   5  16   35.86    5.52
   1  -5  16   20.45    4.69
   1   5  16   24.42    7.85
   1   5  17   21.73    8.65
   1   5  17   23.16    4.85
   1  -5  17   21.40    4.85
   1  -5  17   21.76    4.81
   1   5  17   19.05    4.75
   1   5  18  108.00    9.52
   1  -5  18   90.54    9.10
   1  -5  18  102.84    9.56
   1  -5  19   -5.54    3.95
   1   5  19   -0.67    4.01
   1  -5  19    0.69    4.34
   1  -5  20   52.72    6.76
   1  -5  20   54.65    8.56
   1   5  20   52.16    6.73
   1  -5  20   45.95    6.67
   1   5  21   46.25    6.67
   1  -5  21   43.37    6.51
   1   5  21   48.21    8.54
   1  -5  21   35.01    7.76
   1   5  22   26.64    6.95
   1  -5  22   23.09    6.59
   1  -5  22   31.15    5.86
   1   5  22   22.91    5.12
   1   5  23   58.64    6.91
   1   5  23   80.85    9.92
   1  -5  23   64.80    7.34
   1   5  24   34.29    6.89
   1  -5  24   17.86    4.11
   1   5  25    2.83    3.86
   1  -5  25   -0.37    3.01
   1   5  26    6.40    3.47
   1  -5  26    3.49    3.18
   1   5  27   67.01    6.49
   1  -5  27   66.14    6.59
   1  -5  28    8.83    2.20
  -1   7  27   -0.33    1.64
  -1  -7  27   -1.00    1.82
  -1  -7  26  199.63   13.22
  -1   7  26  222.31   13.68
  -1  -7  25   47.89    6.35
  -1   7  25   44.98    6.33
  -1   7  24   34.33    6.23
  -1  -7  24   33.62    6.03
  -1  -7  23   51.73    7.74
  -1   7  23   54.40    7.95
  -1  -7  22   55.07    8.21
  -1  -7  21   65.25    9.24
  -1   7  20  544.61   37.22
   1  -7 -20  549.77   38.17
  -1  -7  20  547.90   32.56
   1  -7 -19  353.06   31.51
  -1   7  19  337.11   27.92
  -1  -7  19  334.76   23.23
  -1   7  18 1046.65   60.43
   1  -7 -18 1060.95   55.32
   1  -7 -18  993.95   65.85
   1  -7 -17   78.65   10.62
   1  -7 -17   78.44   18.92
  -1   7  17   69.87   13.63
   1  -7 -16  129.00   13.07
   1  -7 -16   88.85   19.23
  -1   7  16  121.83   17.02
  -1   7  15   28.25    9.58
   1  -7 -15   41.66   14.93
   1  -7 -15   31.39    6.82
   1  -7 -14   81.28    9.51
  -1  -7  14   59.07    9.25
  -1   7  14   65.60   12.40
  -1   7  14   69.94   13.60
   1  -7 -14   61.53   14.21
  -1   7  13   17.14    7.78
  -1   7  13    8.02    7.11
  -1  -7  13   14.07    5.33
   1  -7 -13   12.18    4.54
   1  -7 -13   23.20   10.57
  -1  -7  12  235.37   16.81
   1  -7 -12  241.07   22.84
   1  -7 -12  239.98   16.66
  -1   7  12  221.41   21.56
  -1   7  12  204.76   21.56
  -1   7  11   30.17    8.98
   1   7 -11   30.31    5.82
  -1  -7  11   39.76    6.18
  -1   7  11   32.14    9.17
   1  -7 -11   46.65    9.77
   1  -7 -11   37.14    5.81
   1  -7 -10  456.55   25.31
  -1  -7  10  468.31   25.45
   1  -7 -10  430.87   30.30
   1   7 -10  473.05   26.72
  -1   7  10  406.04   31.64
  -1   7  10  424.39   31.58
   1  -7  -9  359.60   24.73
  -1   7   9  318.18   25.97
   1  -7  -9  319.30   19.47
  -1   7   9  334.55   26.12
   1   7  -9  353.20   21.42
  -1  -7   9  320.95   19.43
   1   7  -8 1584.92   72.04
   1  -7  -8 1463.49   69.07
  -1   7   8 1476.41   77.92
  -1   7   8 1462.09   77.01
  -1   7   7  359.27   26.64
   1   7  -7  373.18   22.71
  -1  -7   7  351.34   19.97
  -1   7   7  363.45   27.22
   1  -7  -7  373.35   20.43
   1   7  -6 3427.21  153.02
   1  -7  -6 3512.59  149.68
  -1   7   6 3307.23  158.28
  -1  -7   6 3349.01  149.14
  -1   7   5  571.84   38.39
  -1  -7   5  640.90   31.77
   1   7  -5  623.34   34.83
   1  -7  -5  706.22   32.32
   1  -7  -4 1161.58   52.86
  -1  -7   4 1128.33   52.72
   1  -7  -3   19.62    3.34
  -1  -7   3   23.06    3.67
   1  -7  -2  111.98    7.97
  -1  -7   2  117.92    8.37
   1  -7  -1   54.24    5.07
  -1  -7   1   59.39    5.68
  -1  -7   1   67.34    4.98
   1  -7   0   61.77    5.89
  -1  -7   0   56.21    4.87
   1  -7   0   59.81    5.14
  -1  -7  -1   21.24    3.16
   1  -7   1   21.39    3.70
   1  -7   1   23.97    3.21
  -1  -7  -2   65.91    5.47
   1  -7   2   60.36    6.11
  -1  -7  -3  176.64   10.86
   1  -7   3  173.95   11.51
   1   7   4 1116.52   62.66
  -1  -7  -4 1182.59   54.07
   1  -7   4 1184.08   54.82
  -1   7  -4 1186.53   57.10
   1   7   5  502.26   32.58
  -1   7  -5  453.75   26.10
  -1  -7  -5  442.68   23.58
   1  -7   5  456.88   24.24
   1   7   6  411.51   30.82
   1  -7   6  440.47   24.72
   1   7   6  427.85   31.45
  -1   7  -6  519.29   27.16
  -1  -7  -6  492.12   24.68
   1   7   7  128.21   15.31
   1   7   7  109.01   14.14
  -1   7  -7  135.34   11.40
  -1  -7  -7  138.18   10.14
   1  -7   7  131.84   10.37
   1   7   8  230.29   21.70
  -1   7  -8  237.36   16.17
   1  -7   8  260.56   15.82
  -1   7  -9   31.27    5.48
  -1  -7  -9   27.91    7.26
   1   7   9   36.31    9.48
   1   7   9   26.09    8.08
   1  -7   9   29.98    5.19
  -1  -7 -10   64.32   10.50
   1   7  10   57.57   11.77
   1   7  10   55.71   11.07
   1  -7  10   73.56    8.41
   1  -7  11   95.44   10.38
   1   7  11   97.82   14.20
  -1  -7 -11   71.29   11.87
   1   7  11   66.07   12.08
   1  -7  12  285.13   20.47
  -1  -7 -12  283.39   25.66
   1   7  12  278.48   25.21
   1   7  13   15.74    7.94
  -1  -7 -13    8.18    9.06
   1  -7  13   14.39    6.34
   1   7  14    1.77    7.06
   1  -7  14    0.96    4.25
  -1  -7 -14    2.40    8.98
   1   7  15    5.34    8.07
  -1  -7 -15    5.24   10.73
   1  -7  15    5.92    4.76
   1   7  15    1.78    7.07
  -1  -7 -16   12.74   10.47
   1   7  16   26.48   10.40
   1  -7  16   20.11    6.04
   1   7  17   60.53   13.02
   1  -7  17   69.10    9.67
  -1  -7 -18  284.37   22.41
   1   7  18  307.87   26.69
   1  -7  18  326.54   22.40
   1   7  19   36.65    9.46
   1  -7  19   31.86    7.01
   1  -7  20   47.86    8.23
   1   7  20   55.20   11.63
   1  -7  21   -0.90    4.24
   1  -7  22   89.00    9.90
   1  -7  23   51.73    6.97
   1   7  24   18.48    4.60
   1  -7  24   19.39    4.92
   1  -7  25    7.73    3.11
   1   7  25    8.41    3.04
   1   7  26   38.95    4.51
   1  -7  26   40.81    4.57
  -1   9  24  513.22   25.64
  -1  -9  23   46.70    5.35
  -1   9  23   52.57    5.92
  -1  -9  22  136.78   10.67
  -1   9  22  137.16   11.01
  -1   9  21    4.88    3.93
  -1  -9  21    4.47    3.38
  -1  -9  20  104.51   10.33
  -1  -9  19   49.69    7.65
   1  -9 -19   34.66    9.26
   1  -9 -18   89.43   14.99
  -1  -9  18   70.77    9.24
  -1   9  18   89.89   13.13
   1  -9 -17   55.44   14.64
  -1  -9  17   58.34    8.25
  -1   9  17   50.09   10.62
  -1  -9  16   42.97    7.62
   1  -9 -16   33.76   14.52
  -1   9  16   55.85   11.88
   1  -9 -15   55.91   15.30
  -1   9  15   31.48   10.51
  -1  -9  15   42.07    7.53
  -1  -9  14 1167.98   60.32
   1  -9 -14 1085.61   59.56
  -1   9  14 1335.11   69.06
   1  -9 -14 1448.13   78.12
  -1   9  13  135.25   19.58
  -1  -9  13  162.62   15.34
  -1  -9  13  166.52   14.73
   1  -9 -13  146.23   21.58
  -1   9  13  158.52   19.54
   1  -9 -13  145.51   13.60
  -1  -9  12 1282.24   63.13
   1  -9 -12 1198.97   61.95
   1  -9 -12 1355.09   74.72
  -1   9  12 1242.03   74.12
  -1   9  12 1293.40   71.37
   1  -9 -11  180.98   14.46
  -1  -9  11  168.49   14.17
  -1   9  11  167.51   19.54
   1  -9 -11  205.00   21.48
  -1   9  11  154.63   20.96
   1  -9 -10   18.84    4.84
   1  -9 -10   27.08    9.13
  -1   9  10   31.44   12.00
  -1  -9  10   15.69    4.86
  -1   9  10   24.49    8.97
   1  -9  -9   26.91    7.83
   1  -9  -9   19.22    4.62
   1   9  -9   13.60    4.61
  -1   9   9   29.24    9.99
  -1   9   9   26.76   10.35
  -1  -9   9   14.88    4.83
   1  -9  -8  577.03   32.47
   1  -9  -8  645.67   40.60
  -1   9   8  668.18   42.47
   1   9  -8  627.69   35.51
  -1  -9   8  605.82   33.22
  -1   9   8  629.75   44.07
  -1   9   7  218.37   23.36
  -1   9   7  195.44   20.52
   1  -9  -7  195.79   13.88
   1   9  -7  176.22   15.78
   1   9  -6  399.18   26.05
   1  -9  -6  378.01   22.09
  -1   9   6  398.71   32.60
  -1   9   5  119.91   17.18
  -1  -9   5  103.69    9.90
   1   9  -5  105.79   15.68
   1  -9  -5  122.57    9.77
   1   9  -5  127.78   13.21
   1   9  -4   13.47    5.86
   1  -9  -4   11.49    4.31
  -1  -9   4   14.09    3.77
   1   9  -4   13.51    7.31
  -1   9   4    5.47    6.37
  -1   9   3  285.15   26.33
   1   9  -3  306.98   22.52
   1   9  -3  322.38   27.44
  -1  -9   3  293.28   18.19
   1  -9  -3  281.70   18.52
   1   9  -2 1054.44   62.01
  -1   9   2 1035.34   61.89
  -1  -9   2 1120.06   51.94
   1  -9  -2 1039.68   52.08
   1   9  -1   22.79    8.91
   1  -9  -1   38.48    5.91
  -1  -9   1   31.64    5.25
  -1   9   1   38.69   10.36
   1   9   0 1969.44  104.08
   1  -9   0 2085.47   93.37
  -1  -9   0 2004.44   92.92
  -1   9   0 2095.39  103.62
   1  -9   1  147.59   11.26
   1   9   1  133.73   17.24
  -1  -9  -1  116.97   10.40
  -1   9  -1  127.31   16.18
  -1  -9  -2  896.66   44.78
   1   9   2  892.25   55.34
   1  -9   2  906.55   44.83
   1   9   3    7.35    6.68
  -1   9  -3   18.74    6.07
   1  -9   3   20.74    4.78
   1   9   4   54.66   12.41
   1   9   4   57.73   11.59
  -1   9  -4   65.94    9.47
   1  -9   4   45.63    6.44
   1  -9   5  182.25   14.14
  -1   9  -5  205.83   16.38
   1   9   5  189.30   21.32
   1   9   5  222.09   21.83
  -1   9  -6   51.91    7.84
   1   9   6   43.81   11.87
   1   9   6   54.59   11.83
   1  -9   6   45.47    6.89
   1   9   7   10.26    8.17
   1   9   7    1.81    6.53
   1  -9   7    0.74    3.21
  -1  -9  -7    5.16    3.30
  -1  -9  -8   42.12    9.34
   1   9   8   42.25   11.99
  -1  -9  -8   68.42    7.87
   1  -9   8   65.34    8.38
   1   9   8   86.79   14.70
   1   9   9  253.33   25.49
   1  -9   9  232.08   17.59
  -1  -9  -9  257.35   22.77
  -1  -9  -9  226.46   16.78
   1   9   9  302.48   28.15
  -1  -9 -10  781.14   42.94
   1   9  10  836.29   55.52
  -1  -9 -10  876.65   50.64
   1  -9  10  849.39   44.39
   1   9  10  804.87   52.32
  -1  -9 -11  115.46   16.59
  -1  -9 -11  116.24   11.50
   1   9  11   94.89   16.21
   1  -9  11   97.49   11.78
   1   9  11  133.17   19.59
   1  -9  12 1287.33   67.56
  -1  -9 -12 1296.26   65.99
   1  -9  12 1262.74   66.42
  -1  -9 -12 1479.84   77.72
   1   9  12 1504.72   77.38
   1   9  12 1347.13   78.37
  -1  -9 -13   52.67    8.48
  -1  -9 -13   42.19   13.22
   1   9  13   55.74   12.48
   1  -9  13   52.35    8.64
   1   9  13   49.96   13.27
   1   9  14  800.90   51.39
  -1  -9 -14  720.91   51.97
   1  -9  14  699.96   40.24
   1   9  14  726.17   47.81
   1  -9  15   -1.88    4.96
   1   9  15    5.20    7.49
  -1  -9 -15    2.42    9.63
   1  -9  16  208.24   16.76
  -1  -9 -16  181.33   23.14
   1  -9  17    5.98    4.29
   1   9  17   10.82    8.31
   1  -9  18  135.19   12.46
   1   9  18  154.07   17.02
   1   9  19    6.18    4.02
   1   9  19    1.29    6.25
   1  -9  19    7.98    3.84
   1  -9  20   64.95    7.63
   1   9  20   69.82    8.13
   1  -9  21   16.46    4.16
   1   9  21   15.32    4.27
   1  -9  22  107.47    8.52
   1   9  22  102.65    8.72
   1  -9  23    9.44    2.50
   1   9  23   11.12    2.76
  -1  11  19  290.88   15.78
  -1  11  18  111.91    8.66
   1 -11 -18  134.49   11.91
   1 -11 -17  366.45   23.04
   1 -11 -17  350.96   24.58
  -1  11  17  309.49   18.75
   1 -11 -16   40.48   10.34
   1 -11 -16   54.78    8.41
   1 -11 -15   20.56    9.89
   1 -11 -15    9.91    5.26
   1 -11 -14   27.59   10.92
  -1  11  14   27.67    7.36
   1 -11 -14   35.41    7.80
  -1  11  13  292.68   22.82
   1 -11 -13  302.02   21.78
   1 -11 -13  291.86   29.54
  -1  11  12    8.66    6.44
   1 -11 -12   13.02    5.56
  -1 -11  12    6.15    5.06
   1 -11 -12    6.54    8.42
   1 -11 -11   10.45    9.69
   1 -11 -11   13.73    5.30
  -1 -11  11   10.55    5.35
  -1  11  11   19.33    9.53
  -1  11  10   16.06    8.89
   1 -11 -10   11.46    5.15
   1 -11 -10    7.93    8.13
  -1 -11  10    8.14    4.80
  -1 -11   9   62.28    8.79
   1 -11  -9   77.35   14.34
   1 -11  -9   57.48    8.84
  -1  11   9   57.84   13.18
   1 -11  -8  388.82   30.53
  -1 -11   8  343.40   22.53
   1 -11  -8  344.27   22.98
  -1  11   8  340.07   30.90
  -1 -11   7 1094.41   55.98
   1 -11  -7 1153.86   56.59
   1 -11  -7 1064.89   64.00
  -1  11   7 1136.62   68.07
  -1  11   6  392.58   33.69
  -1 -11   6  380.18   24.08
   1 -11  -6  372.95   24.14
   1 -11  -6  429.77   31.80
  -1 -11   5  260.27   18.21
   1  11  -5  229.23   20.11
   1 -11  -5  257.80   18.25
  -1  11   5  269.13   27.05
  -1  11   4  167.86   21.66
   1  11  -4  118.45   16.34
   1  11  -4  160.52   16.12
   1 -11  -4  156.71   13.14
   1  11  -3   90.98   12.34
   1 -11  -3   68.55    8.84
   1  11  -3   64.59   12.78
  -1  11   3   99.18   16.52
  -1  11   2    3.95    7.37
   1 -11  -2    3.10    3.67
   1  11  -2   -6.85    5.45
   1  11  -2    9.74    7.75
  -1 -11   2    5.96    3.67
  -1 -11   1  171.96   13.42
   1  11  -1  156.36   16.86
   1 -11  -1  168.30   13.45
   1  11  -1  155.22   20.45
  -1  11   1  134.71   15.69
  -1  11   1  187.86   20.65
  -1  11   0   62.52   10.23
   1  11   0   64.80   10.75
   1  11   0   60.26   13.52
  -1  11   0   40.26   10.01
   1 -11   0   65.13    8.31
  -1 -11   0   52.06    7.35
  -1  11  -1   10.47    5.95
   1 -11   1   11.02    4.26
   1  11   1    8.80    9.27
  -1 -11  -1   13.79    4.46
   1  11   1    9.56    5.92
  -1 -11  -2   53.19    7.21
  -1  11  -2   63.11   10.23
   1 -11   2   50.05    7.66
   1  11   2   55.59   13.60
   1 -11   3  267.32   18.41
   1  11   3  289.77   28.06
  -1 -11  -3  215.45   16.63
   1 -11   3  245.72   17.70
  -1 -11  -4  219.64   16.14
   1 -11   4  218.75   16.46
   1  11   4  200.17   24.11
  -1 -11  -5  668.54   37.22
   1 -11   5  701.05   37.76
   1  11   5  696.65   49.06
   1 -11   6  295.33   20.63
  -1 -11  -6  305.47   25.85
   1  11   6  310.44   29.58
  -1 -11  -6  310.23   20.95
   1  11   7 1082.61   66.45
  -1 -11  -7 1139.30   56.10
  -1 -11  -7 1064.77   61.51
   1 -11   7 1058.33   54.91
   1  11   8  127.57   16.51
   1  11   8  139.72   19.76
  -1 -11  -8  110.39   12.40
   1 -11   8  133.71   12.72
  -1 -11  -8  136.45   16.64
   1  11   9  129.36   16.50
   1  11   9  153.90   20.23
  -1 -11  -9  149.83   14.71
   1 -11   9  133.37   13.10
  -1 -11  -9  110.88   16.00
   1  11  10    1.50    6.33
  -1 -11 -10    7.04    8.33
   1 -11  10    4.01    5.21
  -1 -11 -10    7.77    5.25
   1  11  10    6.14    7.65
   1 -11  11  127.32   14.16
  -1 -11 -11  151.43   15.55
   1  11  11  127.93   18.25
  -1 -11 -11  171.74   20.22
   1  11  11  154.33   17.14
  -1 -11 -12    9.56    8.65
   1  11  12    4.04    5.95
  -1 -11 -12   -1.20    5.20
  -1 -11 -13   -3.78    7.95
  -1 -11 -13   -2.43    5.99
   1  11  13   15.02    6.94
   1  11  14   26.89    4.75
  -1 -11 -14   18.73    8.79
   1  11  14   36.76    8.09
  -1 -11 -14   40.55    8.39
   1  11  15  118.58    9.90
  -1 -11 -15  145.91   16.08
  -1 -11 -15  149.40   15.03
   1  11  16   -1.77    1.76
  -1 -11 -16   63.66    9.15
  -1 -11 -17  142.49   11.79
   1  11  17   -0.37    1.43
   1  11  18   -0.29    0.79
   1 -13 -13  946.97   52.31
   1 -13 -12   53.36   12.15
   1 -13 -11 1125.33   67.43
   1 -13 -10    5.20    4.92
   1 -13 -10    2.16   10.01
   1 -13  -9   73.92   16.00
  -1 -13   9   48.30    7.82
   1 -13  -9   50.90    8.84
  -1 -13   8   57.02    8.21
   1 -13  -8   78.04   16.00
   1 -13  -8   69.83    9.59
   1 -13  -7   32.24   11.71
   1 -13  -7   28.35    6.70
  -1 -13   7   17.85    5.49
  -1 -13   6   84.12    9.44
   1 -13  -6   92.48   10.33
   1 -13  -6   96.09   16.18
  -1 -13   5   95.40    9.86
   1 -13  -5   92.80   10.06
   1 -13  -5   86.37   14.94
   1 -13  -4   12.39    9.05
   1 -13  -4    8.43    3.73
  -1 -13   4    9.60    4.05
   1 -13  -4    6.72    3.76
   1 -13  -3  608.51   39.45
   1 -13  -3  495.79   29.47
   1 -13  -3  520.06   29.56
  -1 -13   3  565.82   30.35
   1 -13  -2   16.65    8.81
  -1 -13   2    9.60    4.12
   1 -13  -1 1290.04   70.78
  -1 -13   1 1285.54   62.48
  -1 -13   0  113.37   10.88
   1  13   1  998.94   57.86
   1 -13   1 1057.65   51.87
  -1 -13  -1 1040.37   60.25
  -1 -13  -2    8.18    7.89
   1  13   2   12.50    7.84
   1 -13   2    0.75    3.53
   1  13   3   84.77   13.86
   1 -13   3   82.06    9.10
  -1 -13  -3   68.54   13.32
   1  13   4   42.87   11.03
  -1 -13  -4   67.08   12.64
   1 -13   4   53.61    7.80
   1  13   5  146.07   17.65
   1 -13   5  149.89   13.18
  -1 -13  -5  145.40   18.14
  -1 -13  -6   15.15    8.29
   1  13   6    7.81    7.69
   1 -13   6   -0.82    3.89
   1 -13   7    0.85    4.11
  -1 -13  -7    2.71    4.27
  -1 -13  -7    3.44    8.47
  -1 -13  -8   21.04    9.32
   1 -13   8   22.89    6.08
  -1 -13  -9   52.57   12.96
  -1 -13 -10   57.99   12.42
  -1 -13 -11  368.52   28.52
  -2   0  29   -1.50    2.77
  -2   0  28  934.03   45.88
  -2   0  27    2.00    3.28
  -2   0  27   -0.56    2.66
  -2   0  26 1029.07   51.05
  -2   0  26 1045.04   51.76
  -2   0  25    5.44    4.38
  -2   0  25    3.00    3.70
  -2   0  24 1588.96   74.63
  -2   0  24 1567.75   75.00
  -2   0  24 1496.83   74.79
  -2   0  24 1583.73   74.77
  -2   0  23   -1.72    4.16
  -2   0  23    5.25    4.05
  -2   0  23    5.69    4.00
  -2   0  22   83.52    9.61
  -2   0  22   90.85   10.21
  -2   0  22   78.47    9.24
  -2   0  21    3.11    4.04
  -2   0  21    2.48    3.57
  -2   0  21    0.88    3.72
  -2   0  20  258.34   18.34
  -2   0  20  244.69   17.65
  -2   0  20  304.85   19.76
   2   0 -19   -2.11    4.56
  -2   0  19    2.09    3.43
  -2   0  19    0.83    3.48
   2   0 -18  398.44   28.28
  -2   0  18  466.07   25.45
  -2   0  18  449.59   24.56
   2   0 -17   -1.12    4.47
  -2   0  17   -0.60    2.70
  -2   0  17    3.63    2.83
  -2   0  16  649.05   32.34
  -2   0  16  637.31   32.86
  -2   0  15    2.15    2.59
  -2   0  15   -0.49    2.81
  -2   0  14 5863.75  257.91
  -2   0  14 6071.86  257.27
  -2   0  13    1.05    2.11
  -2   0  13    2.37    2.26
   2   0 -12 3782.87  161.17
  -2   0  12 3697.39  160.29
  -2   0  12 3624.87  159.81
  -2   0  11   -0.62    2.13
   2   0 -11    0.38    2.51
  -2   0  11    1.11    2.06
   2   0 -10 2408.30  105.67
  -2   0  10 2400.93  104.50
   2   0  -9   -0.97    2.45
  -2   0   9    0.21    1.65
   2   0  -8  488.41   23.96
   2   0  -7    4.66    3.41
   2   0  -6  185.46   10.70
   2   0  -5    1.38    2.14
   2   0  -4    3.71    2.05
   2   0  -3    0.72    1.80
   2   0  -2 1277.96   53.09
   2   0  -2 1190.60   51.89
   2   0  -1    1.76    0.69
   2   0  -1    1.88    0.60
   2   0   0 2858.51  122.73
   2   0   0 2911.52  122.80
   2   0   1    0.35    0.89
   2   0   2  143.26    7.33
   2   0   3    0.14    1.35
   2   0   4  185.59    9.76
   2   0  10    4.51    2.44
   2   0  10    5.38    2.64
   2   0  11    1.25    2.52
   2   0  11    7.55    2.49
   2   0  12  340.31   19.32
   2   0  12  356.26   19.33
   2   0  13   -2.04    2.51
   2   0  13    4.35    2.29
   2   0  14 1139.49   53.60
   2   0  14 1117.08   53.75
   2   0  15    2.33    3.13
   2   0  15   -1.51    3.19
   2   0  15    3.07    2.44
   2   0  15   -1.14    4.80
   2   0  16  325.47   21.26
   2   0  16  338.05   20.14
   2   0  16  309.13   19.93
   2   0  17   -1.38    3.98
   2   0  17    1.73    3.73
   2   0  17    0.72    2.86
   2   0  18 1334.69   62.46
   2   0  18 1273.02   63.84
   2   0  18 1240.15   62.24
   2   0  19    3.79    4.30
   2   0  19    3.25    3.14
   2   0  19    3.12    3.54
   2   0  19    4.80    3.63
   2   0  20  205.40   15.23
   2   0  20  150.53   13.94
   2   0  20  167.99   15.14
   2   0  20  192.48   14.89
   2   0  21    5.12    3.77
   2   0  21    3.84    4.72
   2   0  21    0.83    4.00
   2   0  21   -3.38    4.08
   2   0  22  872.26   43.76
   2   0  22  831.20   44.23
   2   0  22  783.32   43.05
   2   0  22  796.83   43.02
   2   0  23    6.44    4.19
   2   0  23    0.79    4.01
   2   0  23    2.57    4.13
   2   0  24   42.80    6.81
   2   0  24   34.32    6.35
   2   0  24   33.16    6.06
   2   0  25   -1.17    3.15
   2   0  25    6.34    3.47
   2   0  25    1.94    3.36
   2   0  26   90.74    9.09
   2   0  26   95.78    8.44
   2   0  27   -1.57    2.94
   2   0  28  278.05   15.55
  -2  -2  29   57.96    5.97
  -2  -2  29   48.87    5.66
  -2   2  29   59.24    6.02
  -2   2  28   55.06    6.19
  -2  -2  28   62.20    7.00
  -2  -2  28   58.65    6.57
  -2   2  28   71.27    7.34
  -2   2  27    6.26    3.79
  -2  -2  27   10.43    4.37
  -2   2  27   13.97    4.17
  -2  -2  27    7.35    3.76
  -2  -2  26  237.19   16.41
  -2   2  26  248.45   16.79
  -2   2  26  216.06   16.62
  -2  -2  26  258.21   17.67
  -2  -2  25   97.51   10.68
  -2  -2  25   92.67    9.94
  -2   2  25   99.78   10.78
  -2   2  25  114.55   10.59
  -2  -2  24   89.46    9.48
  -2   2  24   68.20    9.31
  -2   2  24   79.74    9.23
  -2   2  23    4.20    3.53
  -2   2  23    1.90    4.01
  -2  -2  23   -2.50    4.26
  -2   2  23    6.35    4.20
  -2  -2  23    9.44    3.80
  -2  -2  22   24.26    5.78
  -2  -2  22   35.81    6.49
  -2   2  22   30.67    6.10
  -2   2  22   24.99    5.64
  -2  -2  21 1178.32   59.06
  -2  -2  21 1213.33   58.98
  -2   2  21 1212.91   58.85
  -2   2  21 1176.82   59.08
  -2   2  20  861.59   43.57
  -2  -2  20  879.15   43.70
  -2   2  20  817.47   42.80
  -2  -2  20  873.89   43.27
   2  -2 -20  712.56   45.86
  -2   2  19 1005.08   50.64
   2  -2 -19  931.23   55.01
  -2  -2  19 1022.77   50.73
  -2  -2  19 1051.44   50.44
  -2   2  19 1018.67   50.19
  -2  -2  18 1120.49   52.02
  -2  -2  18 1058.91   51.80
   2  -2 -18  930.13   57.41
  -2   2  18 1071.15   51.77
  -2   2  17  701.04   36.36
   2  -2 -17  705.55   44.32
  -2  -2  17  720.34   36.49
  -2  -2  17  701.51   36.39
  -2   2  17  776.92   45.34
   2   2 -16   86.94    7.79
  -2   2  16   73.90    7.47
  -2  -2  16   79.60    7.67
  -2  -2  16   84.74    7.88
  -2   2  15   15.79    3.76
  -2   2  15   13.80    2.94
   2   2 -15   14.10    3.57
  -2  -2  15   19.87    3.87
  -2  -2  15   21.16    3.77
  -2   2  14  234.37   13.37
   2   2 -14  241.85   14.69
  -2  -2  14  235.83   14.28
  -2   2  14  220.30   14.14
  -2  -2  14  246.25   14.50
  -2  -2  13    7.91    2.67
  -2   2  13    8.57    2.22
  -2  -2  13   11.82    3.07
   2   2 -13    7.89    2.82
  -2   2  13    5.59    2.66
   2   2 -12  624.92   30.64
  -2   2  12  595.89   28.71
  -2   2  12  592.86   29.69
  -2  -2  12  611.66   29.72
  -2  -2  12  657.46   30.12
  -2   2  11   36.32    3.49
  -2  -2  11   36.13    4.11
   2   2 -11   36.99    4.63
  -2  -2  11   35.66    4.13
  -2   2  11   33.59    4.03
  -2   2  10 1172.52   51.01
  -2  -2  10 1136.42   51.99
   2   2 -10 1134.64   52.82
  -2   2   9  757.38   33.00
  -2  -2   9  714.56   33.90
   2   2  -9  713.12   34.74
   2   2  -8 1270.22   57.17
  -2   2   8 1263.61   55.15
  -2   2   7 1539.87   66.43
   2   2  -7 1536.68   68.54
   2   2  -6 1047.59   47.57
   2   2  -5   95.86    7.19
   2  -2  -5  106.88    5.28
   2  -2  -4  498.31   21.77
   2   2  -4  488.63   23.86
   2   2  -3  290.01   14.91
  -2  -2   2  120.73    5.51
   2  -2  -2  133.91    6.51
   2  -2  -1  341.83   15.64
   2   2   0  336.49   14.92
   2  -2   0  351.32   15.13
   2  -2   0  334.06   15.59
   2   2   0  340.48   15.08
   2  -2   1   31.71    2.33
   2  -2   1   30.53    2.51
   2   2   1   29.03    2.20
   2   2   2  402.23   18.10
   2  -2   2  392.28   18.13
   2  -2   3  102.66    5.88
   2   2   3  101.52    5.78
  -2   2  -3   95.49    5.62
   2  -2   4 1578.39   68.04
  -2   2  -4 1547.59   67.62
   2   2   4 1558.46   67.94
   2   2   5  601.63   27.62
   2  -2   5  594.65   27.64
  -2   2  -5  600.53   27.06
  -2   2  -6  641.61   30.13
   2   2   6  697.12   31.04
   2  -2   6  686.13   31.01
   2   2   7  136.45    8.74
   2  -2   7  145.94    8.75
  -2   2  -7  144.28    7.94
   2  -2   8  402.63   20.60
  -2   2  -8  422.26   19.47
   2  -2   8  396.21   20.34
   2   2   8  401.31   20.46
   2  -2   9    7.92    2.32
   2  -2   9    5.37    2.48
   2  -2   9    2.96    2.14
   2   2   9    8.29    2.34
  -2   2  -9    5.69    1.78
   2   2   9    4.13    2.27
   2  -2  10   24.05    3.65
   2   2  10   22.43    3.70
  -2   2 -10   31.72    3.15
   2  -2  10   28.64    4.03
   2   2  10   29.42    4.04
   2   2  11  132.58    9.15
   2  -2  11  119.89    8.78
   2  -2  11  112.28    8.52
  -2   2 -11  126.42    7.46
   2   2  11  132.05    9.27
   2  -2  12  529.02   27.45
   2   2  12  578.40   28.08
   2  -2  12  509.37   27.17
   2   2  12  559.75   27.76
   2   2  13   54.80    6.32
   2  -2  13   64.27    6.68
   2   2  13   65.05    6.66
   2  -2  13   57.89    6.18
   2  -2  14  284.28   17.37
   2   2  14  334.35   25.27
   2   2  14  304.94   17.88
   2  -2  14  266.68   17.24
   2   2  14  306.72   18.07
   2  -2  15  301.46   20.39
   2   2  15  308.30   18.84
   2   2  15  336.46   19.15
   2   2  15  343.24   26.44
   2  -2  15  281.39   18.24
   2  -2  15  296.53   18.30
   2  -2  16    9.70    3.30
   2   2  16    6.01    6.49
   2   2  16    1.98    2.47
   2  -2  16    2.47    2.60
   2   2  16    0.63    2.93
   2  -2  16    3.31    3.66
   2   2  17   79.72    8.49
   2  -2  17   74.86    9.43
   2  -2  17   81.91    8.29
   2  -2  17   67.13    7.65
   2   2  17   77.51   12.83
   2   2  17   75.08    8.14
   2  -2  18   33.46    6.57
   2  -2  18   20.98    4.91
   2   2  18   15.05    4.71
   2   2  18   17.41    4.71
   2  -2  18   14.40    4.06
   2   2  18   11.70    5.12
   2   2  18   26.95    9.34
   2  -2  19   16.59    4.50
   2   2  19   18.29    4.76
   2   2  19   18.85    4.54
   2  -2  19   17.65    5.69
   2   2  19   12.02    5.60
   2  -2  19   15.23    4.40
   2   2  20   25.94    5.59
   2  -2  20   30.09    6.17
   2  -2  20   30.35    6.63
   2   2  20   26.33    7.27
   2  -2  20   21.63    5.59
   2  -2  20   25.26    5.56
   2   2  20   25.26    5.91
   2   2  21  179.74   15.76
   2  -2  21  219.63   15.40
   2   2  21  185.79   14.61
   2  -2  21  170.23   14.60
   2  -2  21  206.02   16.41
   2   2  21  168.44   14.49
   2   2  22  309.74   20.73
   2   2  22  341.64   21.22
   2  -2  22  276.48   20.16
   2  -2  22  325.29   21.95
   2  -2  22  317.37   20.83
   2   2  22  317.94   22.12
   2  -2  23  464.34   27.22
   2  -2  23  467.87   28.29
   2   2  23  456.53   28.37
   2   2  23  458.55   27.03
   2  -2  24   87.72    9.72
   2   2  24   75.11    9.39
   2  -2  24   76.59    8.85
   2   2  24   91.38    9.20
   2   2  25  653.02   35.98
   2  -2  25  684.64   35.51
   2  -2  25  640.94   35.83
   2   2  25  735.85   36.11
   2   2  26  140.41   11.41
   2   2  26  136.73   10.90
   2  -2  26  140.60   11.34
   2  -2  26  154.90   11.25
   2  -2  27   47.39    5.11
   2   2  27   38.90    4.85
   2  -2  27   41.17    5.33
   2   2  27   39.89    5.37
   2   2  27   49.53    5.73
   2  -2  27   48.60    5.79
   2   2  28    2.29    1.90
  -2  -4  29   25.02    3.99
  -2   4  29   26.94    3.74
  -2   4  28   11.76    3.36
  -2  -4  28    4.40    3.25
  -2  -4  27  589.52   32.06
  -2   4  27  604.93   31.83
  -2   4  27  579.20   30.04
  -2  -4  27  615.35   30.43
  -2  -4  26    2.30    4.19
  -2   4  26   -0.76    3.72
  -2  -4  26    4.44    3.21
  -2   4  26    2.20    3.24
  -2   4  25 1049.15   52.14
  -2   4  25 1012.53   49.52
  -2  -4  25  977.52   51.54
  -2  -4  25 1020.57   49.62
  -2   4  24    2.02    3.38
  -2   4  24    5.69    4.67
  -2  -4  24    5.37    3.78
  -2  -4  23   71.34    8.18
  -2   4  23   65.18    7.91
  -2   4  22   68.73    8.66
  -2   4  22   80.40    8.70
  -2  -4  22   90.34    9.18
  -2  -4  22   86.96    9.48
  -2   4  21   23.85    5.48
   2  -4 -21   23.14    7.71
  -2  -4  21   19.79    5.01
  -2  -4  21   20.94    5.25
  -2   4  21   21.19    5.09
   2  -4 -20    8.98    6.94
  -2   4  20   16.90    4.48
  -2   4  20   10.34    4.24
  -2  -4  20    2.98    3.55
  -2  -4  20   12.67    3.68
  -2   4  19  910.04   44.12
  -2   4  19  815.11   43.62
   2  -4 -19  818.96   51.71
  -2  -4  19  896.16   44.39
  -2  -4  19  879.44   43.82
  -2   4  19  840.45   51.08
   2  -4 -18   -1.80    7.75
  -2   4  18   -0.64    2.95
  -2   4  18    4.70    3.24
  -2  -4  18    0.68    2.92
  -2   4  18    1.44    5.75
  -2  -4  18    1.91    3.31
  -2   4  17    7.15    3.37
  -2   4  17    6.89    6.39
  -2  -4  17   12.01    3.97
   2  -4 -17    7.87    9.12
  -2  -4  17    6.56    3.17
  -2   4  17    8.79    3.28
  -2  -4  16    6.42    3.20
  -2   4  16    8.71    3.18
  -2  -4  16    4.96    3.07
   2   4 -16    8.19    3.21
   2  -4 -16   -2.13    8.21
  -2   4  16    5.21    5.77
  -2   4  16    4.41    2.88
  -2   4  15  237.32   14.97
   2   4 -15  249.88   15.41
  -2  -4  15  241.35   15.03
  -2   4  15  197.12   19.05
  -2   4  15  255.01   15.35
   2  -4 -15  207.24   25.13
  -2   4  14    1.15    4.43
   2  -4 -14   -2.13    7.95
  -2  -4  14    0.46    2.51
  -2   4  14    3.69    2.82
   2   4 -14    5.37    2.74
  -2  -4  14    3.12    2.84
  -2   4  13 1876.52   81.73
  -2  -4  13 1853.63   81.69
  -2   4  13 1588.86   87.24
  -2  -4  13 1871.92   82.44
   2   4 -13 1773.05   82.42
   2   4 -12   38.08    5.06
  -2  -4  12   32.44    5.28
  -2  -4  12   26.59    4.18
  -2  -4  12   29.58    4.22
  -2   4  12   39.05    4.63
  -2   4  11  780.71   35.37
  -2  -4  11  772.86   36.51
   2   4 -11  720.09   36.47
  -2  -4  11  730.77   35.76
  -2  -4  11  727.96   35.15
  -2  -4  10    4.56    2.44
  -2  -4  10    3.99    2.35
   2   4 -10    0.46    2.36
  -2  -4   9   65.94    5.57
   2   4  -9   68.20    6.65
  -2  -4   8    5.38    2.13
   2   4  -8    5.00    3.08
   2   4  -7    4.12    2.83
  -2  -4   7    1.52    1.62
   2   4  -6    2.71    2.89
  -2  -4   6    1.80    1.52
  -2  -4   5   10.48    1.93
   2   4  -5   11.42    3.42
   2  -4  -4    0.67    1.66
  -2  -4   4    0.34    1.30
  -2  -4   3 1563.94   69.40
  -2  -4   3 1673.83   70.24
   2  -4  -3 1693.04   70.92
  -2  -4   2   47.01    2.98
   2  -4  -2   47.70    3.78
  -2  -4   1 1622.92   71.51
   2  -4  -1 1727.06   72.45
   2  -4   0  571.77   25.36
   2   4   0  543.80   23.94
   2  -4   1 1844.95   71.45
  -2  -4  -1 1598.75   69.59
   2   4   2    7.25    1.09
   2  -4   2    7.33    1.17
   2  -4   2    8.97    1.96
   2   4   3  451.25   20.36
   2  -4   3  444.89   20.47
   2  -4   4    9.05    1.92
   2   4   4   11.93    1.89
  -2   4  -5  174.00   10.63
   2   4   5  176.71    9.60
   2  -4   5  179.20    9.77
   2   4   6    4.38    1.75
   2  -4   6    6.09    2.07
   2  -4   6    2.73    2.24
  -2   4  -6    4.35    2.27
   2   4   7 1066.16   49.31
   2  -4   7 1084.34   50.55
   2  -4   7 1149.77   49.84
  -2   4  -7 1079.46   49.57
   2  -4   8   29.22    4.66
  -2   4  -8   34.07    3.92
   2  -4   8   34.07    4.22
   2   4   8   37.11    3.97
   2   4   9  213.80   12.88
   2  -4   9  220.04   13.14
   2  -4   9  229.64   13.28
   2  -4   9  244.26   15.12
   2   4   9  222.36   13.05
  -2   4  -9  223.17   12.51
   2   4  10   41.19    4.41
  -2   4 -10   29.60    3.65
   2  -4  10   31.76    5.70
   2   4  10   39.64    4.48
   2  -4  10   34.41    4.34
   2  -4  10   38.93    4.44
   2  -4  11 1066.89   50.45
   2   4  11 1062.33   50.18
   2  -4  11 1100.03   50.45
   2   4  11 1074.76   50.40
   2   4  12   35.01    4.66
   2   4  12   25.92    4.07
   2   4  12   32.18    8.52
   2  -4  12   31.09    4.46
   2  -4  12   31.48    4.44
   2   4  13    7.42    3.03
   2   4  13    4.10    3.02
   2  -4  13    4.63    3.07
   2  -4  13    4.19    2.78
   2   4  13    8.21    6.06
   2  -4  14   16.97    3.71
   2   4  14   15.53    3.87
   2   4  14    9.72    2.92
   2   4  14   12.89    6.36
   2  -4  14   13.82    3.58
   2   4  15  592.25   31.18
   2   4  15  610.58   31.48
   2  -4  15  587.74   31.09
   2  -4  15  575.69   31.07
   2   4  16   33.29    5.64
   2  -4  16   40.13    6.03
   2   4  16   44.64    6.14
   2  -4  16   45.67    6.32
   2   4  16   34.64    9.12
   2   4  17   59.22    7.38
   2   4  17   60.01   12.39
   2  -4  17   59.01    9.37
   2  -4  17   48.67    6.82
   2  -4  17   67.93    7.65
   2   4  17   53.32    7.01
   2  -4  18   17.94    5.01
   2  -4  18   14.80    4.53
   2  -4  18   24.35    6.24
   2   4  18   14.82    4.53
   2   4  18   17.09    8.38
   2   4  18   22.23    5.05
   2   4  19  284.88   18.71
   2   4  19  281.02   24.75
   2  -4  19  280.98   18.58
   2  -4  19  283.98   18.73
   2   4  19  257.33   18.29
   2  -4  20    1.49    3.04
   2   4  20    0.73    3.40
   2   4  20    2.13    5.05
   2   4  20    1.51    6.35
   2   4  20   11.05    4.02
   2  -4  20    0.74    3.50
   2   4  21   34.19    5.99
   2  -4  21   23.40    5.63
   2   4  21   23.78    6.72
   2  -4  22    0.71    3.86
   2  -4  22    5.85    4.51
   2   4  22    3.51    3.46
   2   4  22    4.91    4.83
   2   4  23   58.28    8.47
   2  -4  23   34.74    6.02
   2  -4  23   53.67    8.51
   2   4  23   48.86    6.85
   2   4  24   47.23    6.21
   2  -4  24   47.55    7.59
   2  -4  24   42.97    5.87
   2   4  24   45.05    6.93
   2  -4  25    6.39    4.00
   2  -4  25    2.20    2.18
   2   4  25    7.79    4.05
   2  -4  25    4.93    3.16
   2   4  25    5.53    2.70
   2   4  25    2.43    2.97
   2   4  26   40.57    5.82
   2  -4  26   41.37    5.88
   2  -4  26   34.96    4.42
   2   4  27   14.77    3.46
   2  -4  27    8.38    2.92
  -2   6  28   11.48    2.83
  -2   6  27    2.53    2.68
  -2  -6  27    4.67    2.88
  -2   6  26  226.22   15.28
  -2  -6  26  211.45   15.01
  -2   6  25   33.30    6.29
  -2  -6  25   28.06    5.89
  -2  -6  24   17.34    5.38
  -2   6  24   12.17    5.14
  -2  -6  23   -0.89    3.66
  -2  -6  22   12.27    5.10
  -2  -6  21  867.04   43.46
   2  -6 -21  945.12   53.79
   2  -6 -20  185.19   16.52
  -2   6  20  165.44   18.37
   2  -6 -20  180.97   21.17
  -2  -6  20  197.48   13.60
   2  -6 -19  543.72   31.18
   2  -6 -19  420.36   36.96
  -2  -6  19  465.10   25.83
  -2   6  19  436.17   33.00
   2  -6 -18   26.44   11.41
  -2  -6  18   21.29    4.62
  -2   6  18   29.29    9.11
  -2  -6  17 1077.90   50.89
  -2   6  17 1078.05   60.48
   2  -6 -17  951.07   66.79
  -2  -6  16   21.18    4.17
  -2   6  16   19.32    7.50
   2  -6 -16   10.35   10.92
   2  -6 -15    2.41    8.38
  -2  -6  15    6.24    2.85
  -2   6  15   12.97    6.68
  -2  -6  14  268.25   17.09
  -2  -6  14  252.60   15.78
   2   6 -14  284.93   17.89
  -2  -6  14  287.99   19.64
   2  -6 -14  289.44   28.03
  -2   6  14  228.79   22.09
  -2   6  14  250.71   22.16
  -2  -6  13   45.98    6.97
  -2  -6  13   52.35    5.60
  -2  -6  13   55.03    6.45
  -2   6  13   41.45    9.96
  -2   6  13   39.45    9.48
   2   6 -13   50.59    6.84
   2  -6 -13   47.81   12.15
  -2  -6  12  313.93   18.46
  -2  -6  12  298.92   17.52
  -2   6  12  236.12   22.25
   2   6 -12  281.73   18.38
  -2  -6  12  283.11   16.21
  -2   6  12  266.78   22.40
   2  -6 -12  319.47   25.16
  -2   6  11    5.26    5.08
   2  -6 -11   12.53    6.29
  -2  -6  11   10.44    3.44
  -2   6  11    8.50    5.51
  -2  -6  11    7.01    2.30
   2   6 -11    6.76    3.53
  -2  -6  11    6.45    3.22
  -2   6  10  106.64   13.50
  -2  -6  10  136.49    8.78
   2   6 -10  139.60   11.49
   2  -6 -10  114.64   13.40
  -2   6  10  127.92   14.23
  -2  -6  10  140.30    9.86
  -2  -6  10  140.27   10.12
  -2  -6   9  548.19   26.91
   2  -6  -9  549.96   32.11
   2   6  -9  583.35   29.67
   2  -6  -9  506.06   27.28
   2  -6  -8  302.04   18.00
   2   6  -8  324.81   20.31
  -2  -6   8  348.60   18.05
  -2  -6   7 2118.91   93.56
   2   6  -7 2104.06   96.90
   2  -6  -7 2118.32   94.13
   2   6  -6 1130.96   56.14
  -2  -6   6 1176.72   52.84
   2  -6  -6 1161.29   53.41
   2  -6  -5  147.09    9.47
   2   6  -5  135.96   11.60
  -2  -6   5  151.13    9.06
  -2  -6   5  134.45    8.85
  -2  -6   4  389.83   18.67
  -2  -6   4  362.43   18.83
   2  -6  -4  367.39   19.22
   2  -6  -3  256.12   14.17
  -2  -6   3  259.29   13.26
  -2  -6   3  267.54   14.13
   2  -6  -2   51.84    4.63
  -2  -6   2   49.05    3.69
   2  -6  -1  789.07   34.38
   2   6  -1  704.97   32.00
  -2  -6   1  764.65   33.27
  -2  -6   0   96.55    6.12
   2  -6   0   84.19    6.90
   2  -6   0   98.71    6.59
  -2  -6  -1   15.25    2.42
   2  -6   1   16.74    3.12
   2  -6   1   13.55    2.44
  -2  -6  -2  197.50   10.94
   2  -6   2  187.12   11.75
   2  -6   3    3.07    2.22
  -2  -6  -3    3.70    2.00
   2  -6   4 1189.06   54.88
   2  -6   5   81.71    7.16
  -2   6  -5   76.32    7.51
   2  -6   6  437.57   24.56
  -2   6  -6  479.61   25.52
   2  -6   6  493.31   24.96
   2   6   7  230.37   20.57
   2  -6   7  284.93   16.53
  -2   6  -7  267.67   16.40
   2  -6   8  434.08   23.57
   2   6   8  382.64   28.62
  -2   6  -8  441.28   23.18
   2  -6   8  409.12   20.95
   2  -6   9   -0.63    3.00
   2   6   9    1.35    6.27
   2  -6   9    4.43    2.17
  -2  -6  -9   -0.95    4.47
  -2  -6 -10  131.27   13.91
   2   6  10  104.00   14.55
   2  -6  10  123.37    8.88
   2  -6  10  118.17   10.95
   2  -6  10  103.63   11.20
   2  -6  11  292.84   16.65
  -2  -6 -11  303.00   23.81
   2  -6  11  273.50   20.83
   2   6  11  247.69   23.04
   2   6  11  270.59   23.63
   2  -6  11  288.82   20.14
   2  -6  12   80.40    7.29
   2   6  12   59.06   11.28
  -2  -6 -12   52.51   11.33
   2  -6  12   69.36    9.86
   2   6  12   51.34   10.88
   2   6  13    3.12    6.23
  -2  -6 -13    5.74    7.85
   2  -6  13   12.80    3.45
   2   6  13   19.29    8.08
   2  -6  14  107.54    9.24
   2   6  14   94.03   14.57
   2   6  14  108.46   15.42
   2   6  15  157.39   18.99
   2   6  15  194.65   19.99
   2  -6  15  164.10   12.55
   2  -6  15  180.12   15.21
   2  -6  16    2.46    3.46
   2   6  16    1.68    6.68
   2  -6  16   -0.98    4.21
   2   6  17    9.95    8.35
   2  -6  17   17.23    4.30
   2  -6  17   19.10    6.33
   2   6  18   -1.62    7.16
   2  -6  18   -0.61    3.47
   2  -6  18   -1.02    4.52
   2  -6  19   62.34    8.92
   2  -6  19   42.79    6.34
   2   6  19   62.24   11.93
   2  -6  20   17.98    5.75
   2  -6  21  188.30   15.62
   2   6  21  171.70   15.31
   2  -6  22   -0.88    4.24
   2   6  22   -1.76    4.33
   2   6  23  130.58   12.02
   2  -6  23  127.76   11.82
   2   6  24   55.06    7.26
   2  -6  24   50.44    6.83
   2  -6  25  373.92   21.83
   2   6  25  407.52   22.29
   2   6  26   43.10    5.11
  -2  -8  26  476.99   22.74
  -2   8  26  418.03   22.58
  -2  -8  25   59.68    6.11
  -2   8  25   36.55    5.33
  -2  -8  24 1082.05   52.08
  -2  -8  23    4.12    3.51
  -2  -8  22   13.13    4.69
  -2  -8  21    2.52    3.64
   2  -8 -21    7.52    5.81
  -2  -8  20  277.70   19.60
   2  -8 -20  261.09   24.80
  -2  -8  19   22.24    6.42
   2  -8 -19   27.59   11.46
  -2   8  19   36.56    9.60
   2  -8 -18  109.49   19.40
  -2  -8  18  105.83   11.51
  -2   8  18  104.83   14.75
   2  -8 -17    2.84   10.26
  -2  -8  17    4.75    4.49
   2  -8 -17    3.05    4.28
  -2   8  17    8.18    8.51
  -2   8  16  302.16   25.64
   2  -8 -16  260.79   19.69
   2  -8 -16  221.19   29.71
  -2   8  15   11.79    8.31
   2  -8 -15   11.19    5.12
  -2  -8  14 2205.37  104.96
   2  -8 -14 2202.61  104.09
  -2   8  14 2215.99  112.45
  -2   8  14 2152.84  114.42
   2  -8 -13   62.78   14.83
  -2  -8  13   57.26    8.29
  -2   8  13   52.13   11.74
   2  -8 -13   55.78    7.91
  -2   8  13   76.61   14.05
  -2   8  12  939.93   55.25
   2  -8 -12  932.37   56.86
   2  -8 -12  895.91   46.64
  -2   8  12  951.16   57.41
  -2  -8  12  907.17   46.76
   2  -8 -11   18.47    8.60
  -2  -8  11   13.39    4.24
   2   8 -11   17.26    5.11
  -2   8  11   14.61    8.16
  -2   8  11   14.82    9.14
   2  -8 -11   14.30    4.19
  -2   8  10  158.88   18.60
   2  -8 -10  113.26   10.51
   2   8 -10  144.46   12.92
  -2  -8  10  127.59   10.85
  -2   8  10  138.56   16.58
   2  -8 -10  129.33   16.02
  -2  -8   9   12.02    4.16
  -2   8   9   12.27    8.12
   2  -8  -9    5.64    5.63
   2  -8  -9   10.11    3.97
   2   8  -9    9.01    4.19
  -2   8   9    7.59    5.87
  -2   8   8  398.05   31.09
   2   8  -8  395.01   25.05
  -2   8   8  381.14   29.10
   2  -8  -8  397.87   22.49
   2   8  -8  369.95   29.55
   2   8  -7   16.88    7.72
   2  -8  -7   14.13    3.71
  -2   8   7   14.81    8.28
   2   8  -7   12.11    4.88
   2  -8  -6   42.80    5.50
  -2   8   6   30.27    8.97
   2   8  -6   41.30   10.03
   2   8  -6   32.18    6.52
   2   8  -5   30.40    8.73
   2   8  -5   14.47    5.11
  -2   8   5   41.73   10.28
   2  -8  -5   24.67    4.38
   2   8  -4   -0.98    3.90
  -2  -8   4    2.83    2.45
   2  -8  -4    3.32    2.29
  -2   8   4    4.48    6.45
   2   8  -4    6.00    5.02
  -2  -8   3   59.17    6.38
   2  -8  -3   63.02    6.21
  -2   8   3   69.55   11.25
   2  -8  -3   65.77    7.01
   2   8  -3   65.31   11.86
   2  -8  -2  237.45   14.83
   2  -8  -2  216.37   13.43
   2   8  -2  206.10   20.88
  -2  -8   2  230.75   14.18
  -2   8   2  216.37   20.50
  -2  -8   1   21.40    4.01
   2   8  -1   17.81    7.35
  -2   8   1   25.57    7.83
   2  -8  -1   21.41    3.65
   2  -8  -1   13.92    3.71
   2   8   0  408.61   31.04
  -2   8   0  413.31   29.65
   2  -8   0  416.27   22.16
  -2  -8   0  443.63   23.23
   2  -8   0  436.15   23.61
   2   8   1    9.18    6.28
   2  -8   1   13.93    3.72
   2   8   1    6.82    6.20
   2  -8   2   14.73    3.80
   2   8   2    6.27    6.44
   2   8   2   15.48    7.46
   2   8   3    8.74    5.64
   2   8   3    6.42    6.01
   2  -8   3    8.45    3.37
  -2  -8  -3    7.03    2.64
   2   8   4    1.66    6.41
   2   8   4    7.56    5.66
  -2   8  -4    2.39    3.27
  -2  -8  -4    5.43    2.52
   2  -8   4    7.65    3.82
  -2   8  -5   10.13    4.07
   2   8   5    3.15    6.09
   2  -8   5   11.19    3.86
   2   8   5    6.87    6.64
  -2  -8  -5   10.38    3.15
  -2  -8  -6  192.43   13.09
   2  -8   6  199.90   14.24
   2   8   6  188.70   20.28
  -2   8  -6  195.09   14.92
   2   8   6  190.43   21.10
  -2  -8  -7   -0.59    2.55
   2  -8   7    1.37    3.38
   2   8   7   -1.71    6.61
   2   8   7    1.84    6.42
   2  -8   8  131.15   11.27
   2   8   8   93.44   15.91
  -2  -8  -8  110.40   10.01
   2   8   8  101.43   15.81
  -2  -8  -9   37.22    8.51
  -2  -8  -9   33.97    5.79
   2   8   9   31.39   10.46
   2  -8   9   27.60    6.93
   2  -8   9   29.03    6.08
   2   8   9   33.14   10.30
  -2  -8 -10   39.74    9.30
  -2  -8 -10   46.49    6.93
   2  -8  10   48.44    8.03
   2   8  10   49.23   11.72
   2   8  10   42.17   11.47
   2  -8  10   48.83    8.56
  -2  -8 -11   47.26   10.90
   2  -8  11   40.43    7.72
   2  -8  11   26.29    6.81
   2   8  11   42.80   12.54
   2   8  11   32.86   10.17
  -2  -8 -11   45.79    7.18
   2   8  12   50.85   12.17
   2  -8  12   36.62    8.46
  -2  -8 -12   29.51    6.69
  -2  -8 -12   30.70   10.41
   2  -8  12   32.45    7.42
  -2  -8 -13   20.87    5.87
   2   8  13   31.37   10.77
   2  -8  13   29.38    6.89
  -2  -8 -13   45.15   13.30
   2  -8  14   45.96    8.26
  -2  -8 -14   31.68    6.91
  -2  -8 -14   30.32   12.28
   2   8  14   23.30   10.86
   2   8  15   -1.90    7.98
  -2  -8 -15    2.52    9.44
   2  -8  15    2.06    4.57
  -2  -8 -15    6.61    4.87
   2   8  16   71.08   14.05
   2  -8  16   68.77    9.91
   2   8  17   -6.91    7.45
   2  -8  17    4.90    4.63
   2   8  18  621.48   40.14
   2  -8  18  556.62   33.36
   2  -8  19   39.43    6.75
   2   8  19   40.93    7.37
   2   8  19   33.97    9.60
   2   8  20  132.90   15.39
   2  -8  20  112.25   11.39
   2   8  20  123.28   11.55
   2   8  21   23.11    5.40
   2  -8  21   22.79    5.23
   2  -8  22   53.01    6.71
   2   8  22   41.18    6.22
   2   8  23    2.57    3.14
   2  -8  23   -1.48    3.09
   2   8  24   67.86    6.17
   2  -8  24   60.85    5.85
  -2  10  22    1.20    2.01
  -2  10  21  175.20   12.04
   2 -10 -19  293.69   22.40
   2 -10 -18  121.82   15.89
   2 -10 -17  164.48   21.15
   2 -10 -16    4.69    8.77
  -2  10  16   -1.29    5.72
   2 -10 -15   35.69   13.56
  -2  10  15   37.02    9.20
  -2  10  14   63.15   11.73
   2 -10 -14   61.76   16.87
   2 -10 -13   46.67   13.95
  -2  10  13   50.36   10.57
  -2 -10  13   39.73    8.01
  -2  10  12  700.33   47.43
   2 -10 -12  663.47   48.02
  -2  10  12  640.59   42.10
  -2 -10  12  668.61   37.37
   2 -10 -11   23.24   10.80
  -2  10  11    6.32    7.62
  -2 -10  11   13.79    5.16
  -2  10  11   12.07    7.59
  -2 -10  10   88.36   10.00
  -2  10  10   78.81   15.58
   2 -10 -10  101.68   16.35
  -2  10  10   93.58   13.83
  -2 -10   9   39.56    7.02
   2 -10  -9   56.81   12.56
   2 -10  -8  111.29   15.91
   2 -10  -8  120.05   11.47
  -2 -10   8  104.83   10.64
   2  10  -8   89.14   11.29
  -2  10   8   96.12   16.44
  -2  10   7  391.80   32.59
   2  10  -7  319.97   24.21
   2 -10  -7  373.65   22.83
   2 -10  -7  319.43   27.80
   2 -10  -6  782.76   42.67
   2  10  -6  827.63   46.82
   2  10  -6  791.34   51.21
  -2  10   5   90.05   15.84
   2  10  -5  121.39   16.94
   2  10  -5   99.56   12.96
   2 -10  -5  114.94   10.73
   2 -10  -4   45.99    7.13
   2  10  -4   37.03    8.59
  -2  10   4   53.60   12.71
   2  10  -4   54.34   12.74
  -2  10   3   85.34   14.76
   2  10  -3   77.55   11.88
   2 -10  -3   78.41    8.83
   2  10  -3   57.73   13.14
   2  10  -2  112.57   17.56
  -2 -10   2  118.99   10.55
   2  10  -2  101.61   13.66
   2 -10  -2  133.31   11.44
  -2  10   2  110.94   15.77
   2  10  -1  208.45   19.47
   2 -10  -1  204.07   15.20
  -2  10   1  217.75   21.68
   2  10  -1  244.64   24.86
  -2 -10   1  193.59   14.53
  -2 -10   0   26.86    5.21
   2  10   0   37.63   12.15
   2 -10   0   20.00    5.45
  -2  10  -1  197.28   18.13
   2  10   1  222.36   24.58
   2 -10   1  205.43   15.31
  -2 -10  -1  203.84   14.74
  -2  10  -2    9.22    5.37
   2 -10   2   13.03    4.60
  -2 -10  -2   15.40    4.57
   2  10   2   21.04   10.17
  -2  10  -3   53.26    8.91
  -2 -10  -3   66.02    7.98
   2  10   3   79.37   14.28
   2  10   3   65.66   13.65
   2 -10   3   56.33    8.05
   2  10   4  578.62   41.42
   2  10   4  569.30   43.25
  -2 -10  -4  598.66   32.83
   2 -10   4  592.52   33.47
   2 -10   4  616.13   33.45
   2 -10   5    0.81    4.06
   2  10   5    2.18    8.43
   2  10   5    1.88    8.31
   2  10   6    6.64    9.07
   2 -10   6    4.97    3.76
   2  10   6    9.50    8.60
   2  10   7   11.25    8.41
   2 -10   7    5.15    4.54
  -2 -10  -7    2.87    6.50
   2  10   7   -3.82    6.64
   2 -10   8  172.24   15.15
   2  10   8  178.87   20.81
   2  10   8  216.34   24.56
  -2 -10  -8  200.65   19.54
   2 -10   9    1.92    4.63
  -2 -10  -9   15.29    7.81
   2  10   9   -2.29    8.54
   2  10   9   -5.66    8.14
  -2 -10 -10    3.27    6.12
   2  10  10   18.53    8.00
   2  10  10   -2.28    8.51
   2 -10  10    3.09    5.80
   2  10  11   13.43    9.42
   2 -10  11    1.11    5.47
   2  10  11   23.46    9.22
  -2 -10 -11   -1.78    7.09
   2  10  12   10.83   10.24
  -2 -10 -12    5.81    8.14
   2  10  12   -1.74    8.24
   2  10  13    2.06    9.92
   2  10  13    6.63    7.51
  -2 -10 -13    4.07    8.09
  -2 -10 -14   13.67    9.05
   2  10  14    9.35    7.22
   2  10  15    1.45    6.25
   2  10  16   32.91    5.98
   2 -10  16   26.14    5.24
   2  10  16   31.78    9.03
   2  10  17    3.72    3.28
   2  10  17    9.53    5.98
   2 -10  17    2.90    3.67
   2  10  18   33.22    5.04
   2 -10  18   24.28    4.44
   2  10  19   41.45    5.14
   2  10  20   36.08    4.33
   2 -12 -16   34.46    8.07
   2 -12 -15   50.59   11.01
   2 -12 -15   59.59    8.55
   2 -12 -14   18.96    9.47
   2 -12 -14   51.29    7.79
   2 -12 -13  417.74   36.27
   2 -12 -13  455.39   27.86
   2 -12 -12   -2.32   10.27
   2 -12 -12    0.93    4.21
  -2 -12  11   10.23    4.93
   2 -12 -11    8.30    4.89
   2 -12 -11    9.28   10.27
   2 -12 -10    0.91    4.21
  -2 -12  10   -2.63    4.14
   2 -12 -10    2.24   10.36
   2 -12  -9  318.24   30.17
  -2 -12   9  333.00   21.78
   2 -12  -9  327.66   22.04
   2 -12  -8   89.49   10.63
   2 -12  -8  120.81   18.54
  -2 -12   8  119.08   11.27
  -2  12   8   87.85   14.54
  -2  12   7  255.53   24.36
  -2 -12   7  237.10   17.38
   2 -12  -7  258.47   25.14
   2 -12  -7  228.14   17.37
  -2 -12   6    3.17    3.82
   2 -12  -6   -3.68    7.09
   2 -12  -6   -4.14    4.31
  -2  12   6   -1.78    7.67
  -2  12   5  120.65   16.61
  -2 -12   5  135.97   12.18
   2 -12  -5  142.40   17.69
   2 -12  -5  119.36   11.81
  -2  12   4    4.86    6.82
   2 -12  -4    1.74    8.04
   2 -12  -4    2.39    3.61
   2  12  -4    1.52    6.21
  -2 -12   4    1.61    4.03
   2 -12  -3  280.10   18.62
   2  12  -3  249.83   24.29
  -2  12   3  246.81   22.79
   2 -12  -2   24.19    5.36
   2  12  -2   21.07    9.30
   2 -12  -1  208.35   16.16
   2  12  -1  289.97   27.22
   2 -12   0   79.19    9.24
   2  12   0   92.17   16.13
   2  12   1  505.96   40.02
   2 -12   1  511.92   29.76
   2  12   2    2.20    9.26
   2 -12   2    7.38    4.55
   2  12   3   28.34   11.74
  -2 -12  -3   19.55    4.92
   2 -12   3   14.95    4.80
   2 -12   4   29.57    6.58
   2  12   4   36.46   11.43
  -2 -12  -4   33.26    6.18
  -2 -12  -4   45.28   10.96
  -2 -12  -5    6.36    4.00
   2 -12   5   12.10    5.42
  -2 -12  -5    6.14    6.95
   2  12   5   10.44    8.79
   2  12   6    2.02    7.30
  -2 -12  -6    6.11    7.09
   2 -12   6   11.56    5.38
  -2 -12  -6   12.08    4.94
  -2 -12  -7   20.09    8.08
  -2 -12  -7   29.31    7.19
   2  12   7   25.27   10.82
   2 -12   7   16.57    5.90
   2 -12   8   25.89    6.84
  -2 -12  -8   47.94    8.43
  -2 -12  -8   36.38    9.89
   2  12   8   38.90   10.53
  -2 -12  -9   -4.89    6.86
   2  12   9   -5.25    7.36
  -2 -12  -9    4.57    5.83
   2 -12   9    3.99    5.01
   2  12  10    3.26    6.30
  -2 -12 -10    4.92    5.94
  -2 -12 -10   -1.67    7.75
   2  12  11   80.33   10.39
  -2 -12 -11   96.26   14.79
  -2 -12 -11   89.72   12.78
  -2 -12 -12   -1.50    7.40
   2  12  12    0.86    4.55
  -2 -12 -12   -2.53    6.10
  -2 -12 -13   23.08    7.09
  -2 -12 -13   12.76    6.76
   2 -14 -10   38.63   12.36
   2 -14  -9   26.70   13.65
  -2 -14   9    9.04    4.01
   2 -14  -8   76.50   19.74
   2 -14  -7  365.99   38.34
   2 -14  -6   85.06   18.67
   2 -14  -5   16.80   12.71
   2 -14  -4    4.30    9.73
  -2 -14   3    9.57    3.82
  -2 -14   3   20.32    9.07
   2 -14  -3    9.66    9.70
  -2 -14   2   -4.78    8.29
  -2 -14   2    6.90    3.77
   2 -14  -2    4.51    3.29
  -2 -14   1  331.57   21.03
   2 -14  -1  333.39   20.61
  -2 -14   1  354.51   28.35
  -2 -14   0    7.86    3.85
  -2 -14   0    1.60    7.74
   2 -14   0    1.41    6.24
  -2 -14  -1   38.32   11.16
   2 -14   1   26.52    7.87
  -2 -14  -1   20.46    4.99
  -2 -14  -2   11.17    8.15
   2 -14   2    2.88    3.34
   2 -14   2    6.73    5.93
   2 -14   3    1.97    4.84
  -2 -14  -3   -4.80    8.17
  -2 -14  -4   25.60    9.98
   2 -14   4   34.94    6.72
   2 -14   5   12.31    4.51
  -2 -14  -5   15.89    8.56
   2 -14   6   29.93    5.38
  -2 -14  -6   27.58   10.11
  -2 -14  -7   -1.36    6.00
  -3   1  29   10.36    3.32
  -3  -1  29    0.42    1.29
  -3  -1  28   21.79    4.42
  -3   1  28   32.05    5.49
  -3  -1  27  123.52   10.98
  -3   1  27  117.04   10.71
  -3   1  26  562.83   31.70
  -3   1  26  554.26   31.62
  -3  -1  26  613.64   32.52
  -3   1  25  163.58   14.13
  -3   1  25  171.29   13.94
  -3   1  25  162.42   12.91
  -3   1  24  183.83   14.34
  -3   1  24  179.56   14.88
  -3   1  24  153.64   13.95
  -3   1  23   43.75    7.15
  -3   1  23   51.46    7.41
  -3   1  23   42.81    7.61
  -3   1  22  193.70   15.41
  -3   1  22  151.68   13.64
  -3   1  22  183.39   14.23
   3  -1 -22  155.17   15.87
  -3   1  21   11.46    4.50
  -3   1  21   12.22    4.32
   3  -1 -21    3.67    4.59
   3  -1 -20  753.27   45.74
  -3  -1  20  792.91   40.71
  -3   1  20  815.23   41.30
   3  -1 -19  370.90   27.67
  -3   1  19  361.76   22.19
  -3  -1  19  366.21   21.70
   3   1 -19  370.85   26.01
  -3   1  18  228.27   14.67
   3   1 -18  196.53   18.66
  -3   1  18  256.37   16.12
  -3  -1  18  234.99   15.26
   3  -1 -18  238.57   21.36
  -3   1  17   82.59    8.42
   3   1 -17   73.28   11.16
   3  -1 -17   96.12   13.87
  -3   1  17   84.07    7.41
  -3  -1  17   92.33    8.01
  -3  -1  16  162.21   11.20
   3   1 -16  163.61   11.84
  -3   1  16  150.65   10.46
  -3   1  16  148.82   11.22
  -3  -1  15   42.40    5.23
  -3   1  15   46.49    5.53
  -3   1  15   42.69    4.87
   3   1 -15   47.04    5.93
  -3  -1  14  762.14   36.39
   3   1 -14  727.70   37.10
  -3   1  14  758.17   35.68
  -3   1  14  759.48   36.53
  -3  -1  13  419.46   22.16
   3   1 -13  434.00   23.18
  -3   1  13  446.47   22.51
  -3   1  13  440.59   21.74
  -3   1  12 1163.22   53.66
   3   1 -12 1123.78   54.59
  -3  -1  12 1232.23   53.80
  -3   1  12 1204.64   53.13
  -3  -1  12 1168.68   53.68
  -3   1  11   41.59    3.85
  -3  -1  11   47.98    4.42
  -3  -1  11   35.94    4.13
  -3   1  11   40.32    4.24
   3   1 -11   39.30    4.89
   3   1 -10    8.26    2.94
   3  -1  -9   49.51    5.64
   3   1  -9   51.64    5.24
   3   1  -8  168.53   10.60
   3  -1  -8  180.95   11.57
   3   1  -7  218.77   12.73
   3  -1  -7  233.59   13.64
   3  -1  -6    8.56    3.55
   3   1  -6   10.72    3.30
   3   1  -5  529.33   25.51
   3  -1  -5  533.23   26.10
   3   1  -4  178.14   10.71
   3   1  -4  193.12    8.48
   3  -1  -4  189.95    9.07
   3  -1  -3   68.85    3.79
   3   1  -3   66.03    3.17
   3  -1  -2  441.17   19.70
   3   1  -1  507.80   21.98
   3  -1  -1  501.52   22.12
   3   1  -1  485.49   21.81
   3  -1   0  265.86   11.64
   3   1   0  230.41   11.59
   3   1   0  237.17   11.35
   3   1   1  123.94    6.55
   3   1   2   13.00    2.02
   3   1   3  193.29   10.08
   3   1   4   14.93    2.54
   3   1   5  101.22    6.66
   3   1   6   20.15    3.07
   3   1   7  133.51    8.80
   3   1   8   39.25    4.44
   3  -1   9    9.39    2.92
   3   1   9   12.27    2.99
   3   1   9   10.49    2.86
   3   1  10  105.90    8.09
   3   1  10   96.87    7.73
   3   1  11   47.10    5.40
   3   1  11   45.08    5.36
   3   1  12  478.08   25.31
   3   1  12  483.82   25.54
   3   1  13  123.22    9.73
   3   1  13  114.53    9.42
   3  -1  14  119.69   11.11
   3   1  14  127.30   14.63
   3   1  14  109.89    9.76
   3   1  14  123.34    9.92
   3  -1  15  402.05   23.35
   3   1  15  392.59   27.76
   3   1  15  339.92   20.79
   3   1  15  345.21   20.93
   3   1  15  326.95   22.37
   3   1  15  353.18   21.29
   3   1  16   36.90    5.92
   3   1  16   42.63    9.53
   3  -1  16   44.78    7.30
   3   1  16   34.79    5.80
   3   1  16   40.23    7.20
   3   1  16   38.88    6.07
   3   1  17   30.89    5.65
   3   1  17   34.02    8.31
   3  -1  17   28.48    6.39
   3   1  17   27.75    6.38
   3   1  17   25.21    5.27
   3   1  17   39.54    6.11
   3   1  18  390.06   24.53
   3   1  18  427.60   26.64
   3  -1  18  405.47   25.98
   3   1  18  401.88   24.44
   3   1  18  435.80   25.07
   3  -1  18  389.46   25.18
   3   1  19  211.14   17.07
   3   1  19  198.05   15.33
   3   1  19  182.10   15.16
   3  -1  19  216.55   16.92
   3   1  19  210.55   15.65
   3  -1  19  195.87   15.97
   3  -1  20   65.36    9.05
   3   1  20   75.42   10.24
   3   1  20   85.21    9.36
   3  -1  20   68.57    9.19
   3   1  20   75.06    8.86
   3   1  20   58.34    8.03
   3   1  21    1.51    3.64
   3   1  21   -0.99    4.27
   3   1  21   -2.48    3.91
   3  -1  21   -2.74    4.49
   3  -1  21    5.41    4.17
   3   1  21    1.67    3.33
   3  -1  22  209.18   16.00
   3   1  22  193.48   16.04
   3  -1  22  184.78   15.25
   3   1  22  208.98   15.45
   3   1  22  162.25   13.65
   3   1  23   27.37    6.09
   3  -1  23   12.84    4.51
   3   1  23   17.37    5.37
   3  -1  23   26.35    6.16
   3   1  24  324.77   20.27
   3  -1  24  333.06   20.46
   3   1  24  323.38   20.59
   3  -1  24  268.95   18.69
   3  -1  25    0.61    3.24
   3   1  25    1.95    3.66
   3   1  25    3.89    3.60
   3   1  26  161.41    9.42
   3   1  26  173.56   10.14
   3   1  27   14.04    3.19
   3   1  27    5.04    2.46
  -3  -3  30   38.03    4.21
  -3  -3  29   51.38    5.92
  -3   3  29   50.29    5.16
  -3  -3  28   -2.99    3.04
  -3  -3  28    1.25    3.24
  -3   3  28    2.14    2.92
  -3   3  28    5.06    3.09
  -3  -3  27  297.66   17.94
  -3  -3  27  291.77   19.05
  -3   3  27  263.60   18.19
  -3   3  27  303.06   18.19
  -3   3  26    7.86    4.43
  -3  -3  26    6.47    4.42
  -3  -3  26    5.81    3.64
  -3   3  26    6.62    3.74
  -3   3  25  469.28   27.28
  -3   3  25  506.08   29.21
  -3  -3  25  476.49   27.21
  -3   3  24   29.36    6.25
  -3  -3  24   34.57    6.40
  -3   3  24   41.79    7.53
  -3  -3  23    0.80    3.20
   3  -3 -23    7.01    5.29
  -3  -3  23    2.26    3.71
  -3   3  23    4.07    3.60
  -3   3  23    3.07    3.85
  -3  -3  22  213.62   16.74
   3  -3 -22  199.16   19.33
  -3  -3  22  247.13   16.95
  -3   3  22  256.11   17.09
  -3   3  22  236.43   17.23
  -3  -3  21  272.73   19.05
  -3   3  21  263.02   18.83
  -3  -3  21  296.56   19.11
   3  -3 -21  280.14   23.94
  -3   3  21  310.81   19.60
   3  -3 -20   41.02    9.72
  -3   3  20   24.42    5.40
  -3   3  20   38.80    6.32
  -3  -3  20   34.94    6.21
  -3  -3  20   35.59    6.27
  -3  -3  19  236.44   16.73
   3  -3 -19  215.04   22.21
  -3   3  19  238.37   16.27
  -3  -3  19  233.50   16.46
  -3   3  19  238.02   16.51
  -3  -3  19  254.26   16.56
  -3   3  18  147.51   16.91
   3  -3 -18  131.14   17.98
  -3  -3  18  170.39   12.38
   3   3 -18  157.19   11.66
  -3   3  18  154.79   11.99
  -3  -3  18  124.87   11.08
  -3  -3  17  341.80   19.52
   3   3 -17  299.04   18.89
  -3  -3  17  331.82   19.70
  -3   3  17  311.72   24.82
  -3   3  17  333.31   19.53
   3  -3 -17  274.96   27.55
   3  -3 -16    6.27    8.07
  -3  -3  16    9.08    3.23
  -3  -3  16    3.97    3.01
  -3   3  16   10.02    6.52
   3   3 -16    4.66    2.88
  -3   3  16   10.19    3.78
  -3   3  15   42.49    4.57
  -3   3  15   61.57   10.06
   3  -3 -15   48.69    4.86
  -3  -3  15   60.55    6.21
  -3   3  15   52.63    6.08
  -3  -3  15   61.79    6.39
   3   3 -15   39.80    5.88
   3   3 -14   92.80    8.34
  -3   3  14   93.47    6.75
   3  -3 -14   93.41    6.79
  -3  -3  14  103.08    8.05
  -3   3  14  112.53    8.33
  -3  -3  13   17.57    3.33
   3  -3 -13   17.44    2.64
   3   3 -13   17.40    3.90
  -3   3  13   17.29    3.37
  -3   3  13   17.25    2.67
  -3  -3  12   -0.35    2.09
  -3   3  12    1.81    1.56
   3   3 -12   -0.48    2.33
   3  -3 -12    1.12    1.24
  -3   3  12    0.70    1.94
  -3   3  11   46.63    4.67
  -3   3  11   54.43    4.00
  -3  -3  11   43.74    4.56
   3  -3 -11   51.24    3.91
   3   3 -11   56.00    5.85
   3   3 -10  218.33   13.36
  -3   3  10  221.12   10.92
   3  -3 -10  207.72   10.80
  -3   3   9 1100.68   48.64
  -3  -3   9 1151.71   50.26
   3  -3  -9 1090.39   48.70
   3   3  -9 1163.02   51.86
   3   3  -8  525.01   26.83
   3  -3  -8  552.83   23.93
  -3   3   8  512.39   23.64
   3   3  -7 1719.82   77.99
   3  -3  -7 1743.05   74.87
   3   3  -6  185.78   11.80
   3   3  -5  466.41   23.80
   3   3  -4   32.97    4.46
   3  -3  -4   31.78    3.09
  -3  -3   3  939.89   40.41
   3  -3  -3  992.10   42.12
   3  -3  -2   22.65    2.56
   3   3  -1   89.12    4.65
   3  -3  -1   91.52    5.50
   3  -3  -1   82.99    5.01
   3   3  -1   92.76    5.08
   3   3   0    2.65    0.95
   3  -3   0    2.68    0.94
   3  -3   0    1.31    1.51
   3   3   0    1.74    0.79
   3   3   1  866.06   38.18
   3  -3   1  893.75   38.98
   3  -3   1  869.98   38.27
   3  -3   2   75.33    4.78
   3   3   2   80.04    4.80
   3  -3   3   22.72    2.53
   3   3   3   15.08    2.21
   3   3   4  318.54   15.58
  -3   3  -4  307.84   15.37
   3  -3   4  323.54   15.70
  -3   3  -5   22.37    2.55
   3  -3   5   19.45    2.75
   3   3   5   22.34    2.88
  -3   3  -6  179.18    9.55
   3   3   6  171.30   10.21
   3  -3   6  186.03   10.49
   3  -3   7  126.63    9.33
   3   3   7  107.33    7.74
  -3   3  -7  120.16    7.01
   3  -3   7  121.78    8.03
   3  -3   8   13.55    2.79
   3   3   8    9.96    2.79
   3  -3   8   12.80    4.17
  -3   3  -8   16.26    2.29
   3  -3   8   14.83    3.18
   3  -3   9    6.45    2.55
   3  -3   9    8.22    2.38
  -3   3  -9    4.68    1.44
   3   3   9    6.10    2.48
   3   3   9    4.83    2.19
   3   3  10  499.43   25.37
   3  -3  10  463.44   25.02
   3   3  10  534.81   25.71
   3  -3  10  495.59   25.34
   3  -3  11  204.31   12.88
   3   3  11  201.96   13.03
   3  -3  11  211.26   13.16
   3   3  11  213.70   13.26
   3   3  12  159.62   16.56
   3   3  12  195.59   12.31
   3  -3  12  162.35   11.43
   3   3  12  167.99   11.75
   3  -3  12  164.01   11.52
   3  -3  13    2.63    2.54
   3   3  13    6.38    2.95
   3  -3  13    7.18    2.68
   3   3  13    4.38    2.19
   3   3  13    2.60    5.03
   3   3  13    5.38    5.95
   3   3  14   19.92    7.70
   3  -3  14   28.56    4.80
   3   3  14   42.57    5.51
   3  -3  14   50.56    5.79
   3   3  14   51.17    6.30
   3  -3  15   65.35    7.34
   3   3  15   71.21   12.00
   3   3  15   78.08    7.89
   3   3  15   71.14    7.48
   3  -3  15   63.10    7.33
   3   3  16   14.24    3.82
   3   3  16   16.81    8.10
   3  -3  16   11.00    3.95
   3  -3  16   17.88    4.14
   3   3  16   18.58    4.57
   3  -3  17  617.51   32.51
   3   3  17  588.80   39.68
   3   3  17  578.55   32.34
   3   3  17  602.91   32.42
   3  -3  17  598.06   32.39
   3  -3  18   49.66    7.41
   3   3  18   61.08   11.91
   3   3  18   51.72    7.42
   3   3  18   58.09    9.05
   3   3  18   52.54    7.21
   3  -3  18   37.21    6.67
   3  -3  18   65.56    8.99
   3   3  19  244.80   21.83
   3   3  19  213.81   15.44
   3   3  19  171.56   14.34
   3  -3  19  205.83   16.79
   3  -3  19  179.27   14.55
   3  -3  19  178.91   14.61
   3   3  19  208.91   17.15
   3   3  20   96.53    9.94
   3  -3  20   86.50    9.60
   3  -3  20   91.19   10.83
   3   3  20   91.82   11.16
   3   3  20   66.36    8.59
   3  -3  20   89.34    9.43
   3   3  21    7.12    5.47
   3  -3  21    4.64    4.23
   3  -3  21    2.32    3.58
   3   3  21    2.30    3.63
   3   3  21    6.96    4.09
   3  -3  21    5.00    4.53
   3  -3  22   19.26    5.24
   3   3  22   23.35    5.67
   3   3  22   25.13    6.67
   3  -3  22   19.17    5.71
   3  -3  22   29.33    5.93
   3   3  23  143.51   13.58
   3  -3  23  151.68   12.64
   3  -3  23  157.11   13.81
   3   3  23  157.26   12.70
   3   3  24  218.82   15.04
   3   3  24  200.54   15.72
   3  -3  24  203.40   15.76
   3  -3  24  223.73   15.01
   3   3  25  362.56   20.20
   3   3  25  367.97   21.96
   3  -3  25  365.05   21.92
   3   3  25  374.10   20.88
   3  -3  25  329.54   19.81
   3  -3  25  379.84   20.98
   3  -3  26    2.69    3.36
   3  -3  26    2.36    2.43
   3   3  26    7.60    3.56
   3   3  26    4.29    2.47
   3   3  27   22.53    3.87
   3  -3  27   24.50    3.81
  -3   5  29   34.75    4.14
  -3  -5  29   42.82    4.82
  -3   5  28   47.23    5.78
  -3   5  27  844.16   42.31
  -3  -5  26    1.87    2.88
  -3   5  26    1.49    3.53
  -3  -5  25 1374.49   65.61
  -3   5  25 1486.02   69.52
  -3   5  24  162.12   12.13
  -3  -5  24  169.74   12.55
   3  -5 -23  173.67   17.78
  -3   5  23  197.58   13.87
  -3  -5  23  199.29   14.11
  -3  -5  22  103.77    9.83
   3  -5 -22  102.23   13.89
  -3   5  22   90.26    9.24
   3  -5 -22   99.60   11.31
  -3  -5  21  142.41   11.39
   3  -5 -21  136.04   13.34
  -3  -5  21  108.97   10.67
   3  -5 -21  135.88   17.74
  -3   5  21  125.82   10.81
   3  -5 -20   16.87    8.30
  -3  -5  20    8.41    3.48
  -3   5  20   11.48    4.15
  -3  -5  20   11.89    4.30
  -3  -5  19  255.84   16.05
   3  -5 -19  237.20   25.03
  -3  -5  19  205.78   15.27
  -3   5  19  225.74   15.26
  -3   5  19  197.97   20.07
  -3   5  18   18.44    4.10
  -3  -5  18   23.23    4.79
  -3  -5  18   23.43    4.81
  -3   5  18   15.57    3.98
   3  -5 -18    9.15    9.40
  -3   5  18   21.36    7.70
  -3  -5  17   12.55    4.51
   3  -5 -17    2.45   10.07
  -3   5  17   17.82    7.39
  -3  -5  17   17.31    4.29
  -3   5  17   14.77    3.84
  -3  -5  17   15.96    3.89
  -3   5  17   16.34    3.97
   3   5 -16    0.66    2.62
  -3  -5  16    1.95    2.81
  -3   5  16    5.23    5.20
  -3   5  16    4.76    3.02
  -3   5  16    1.66    2.67
  -3  -5  16    7.02    3.42
   3  -5 -16    2.50    9.36
  -3  -5  16    2.86    2.71
  -3  -5  15  539.88   27.94
  -3  -5  15  508.68   26.74
   3   5 -15  502.60   27.97
   3  -5 -15  494.03   40.92
  -3   5  15  441.91   31.98
  -3  -5  15  512.36   27.02
  -3   5  15  531.09   26.81
  -3   5  15  499.72   26.71
  -3   5  14  244.42   14.49
   3  -5 -14  212.52   24.67
  -3   5  14  238.92   14.30
   3   5 -14  215.92   15.33
  -3  -5  14  228.59   14.23
  -3  -5  14  247.12   15.25
  -3   5  14  188.87   18.38
  -3  -5  14  235.85   17.54
  -3  -5  13  651.94   32.86
  -3  -5  13  696.49   34.00
  -3   5  13  602.94   40.06
   3  -5 -13  661.81   45.00
   3   5 -13  715.48   35.23
  -3  -5  13  754.67   35.73
  -3   5  13  568.90   38.12
  -3  -5  12   22.14    4.20
  -3   5  12   17.01    6.49
  -3  -5  12   23.90    4.00
   3  -5 -12   19.10    8.20
   3   5 -12   22.00    4.59
  -3  -5  12   26.24    3.86
  -3   5  12   16.63    6.01
  -3  -5  11   72.45    6.57
   3   5 -11   74.18    7.70
  -3  -5  11   69.11    6.65
  -3  -5  11   70.93    6.06
  -3  -5  10  226.69   13.36
  -3  -5  10  221.28   13.38
   3   5 -10  233.07   15.27
  -3  -5   9  181.97   11.21
   3   5  -9  188.40   13.27
  -3  -5   8   68.37    5.70
   3  -5  -8   64.18    6.05
   3   5  -8   76.87    7.88
  -3  -5   7  156.73    9.83
   3  -5  -7  178.25   10.59
   3   5  -7  169.38   12.48
   3  -5  -6  404.24   19.61
   3   5  -6  349.46   21.71
  -3  -5   6  371.66   18.76
   3   5  -5    4.55    3.64
   3  -5  -5    2.71    1.87
  -3  -5   5    4.97    1.84
  -3  -5   4   11.54    2.12
   3  -5  -4    9.30    2.31
   3  -5  -4    8.63    1.16
  -3  -5   3    3.28    1.46
   3  -5  -3    4.01    1.78
  -3  -5   3    4.36    0.94
  -3  -5   2   23.03    2.37
   3  -5  -2   25.10    3.01
  -3  -5   2   21.62    2.13
   3  -5  -1    8.73    2.21
  -3  -5   1   12.42    1.59
   3   5  -1    9.45    1.25
  -3  -5   1    9.30    1.56
   3  -5   0  247.89   13.75
   3  -5   0  257.12   13.37
  -3  -5   0  258.56   12.61
  -3  -5   0  250.91   11.59
   3  -5   1   22.97    2.91
   3  -5   1   24.17    3.48
   3  -5   2    4.89    2.28
   3  -5   3  125.18    6.58
   3   5   3  119.20    6.37
   3  -5   3  132.14    8.72
   3  -5   4  191.76   11.47
   3  -5   4  181.26    9.53
   3   5   4  174.15    9.22
   3  -5   5  434.42   21.71
   3  -5   5  393.45   21.49
   3  -5   5  403.91   19.60
   3   5   5  382.94   19.20
  -3   5  -5  438.64   21.61
   3  -5   6   37.18    3.99
   3  -5   6   37.52    5.00
  -3   5  -6   41.50    4.86
   3   5   6   43.20    3.94
   3  -5   7  671.78   33.12
   3  -5   7  679.32   31.54
   3   5   7  633.79   30.94
  -3   5  -7  653.72   31.68
   3  -5   8  157.58   11.10
   3  -5   8  186.16   12.72
   3  -5   8  168.28   10.93
  -3   5  -8  175.89   10.65
   3   5   8  182.17   10.79
   3  -5   9  836.19   38.08
   3  -5   9  803.34   40.07
   3   5   9  760.15   36.98
   3  -5   9  808.79   37.72
   3   5   9  722.68   43.90
   3  -5  10  167.10   11.48
   3   5  10  160.02   15.95
   3   5  10  141.82   15.53
   3  -5  10  139.58   12.83
   3   5  10  150.68   10.61
   3  -5  10  171.97   11.31
   3   5  11    3.87    2.60
   3  -5  11    1.56    2.51
   3   5  11   -1.34    5.02
   3   5  11    1.29    5.41
   3  -5  11    2.14    2.92
   3  -5  11    2.50    5.40
   3  -5  12   -1.70    3.00
   3   5  12   -1.07    3.22
   3   5  12    8.16    5.57
   3   5  12    1.57    2.38
   3  -5  12    0.55    2.62
   3   5  12    1.41    5.45
   3  -5  12   -1.38    6.41
   3  -5  13    1.75    2.76
   3   5  13    5.72    3.36
   3  -5  13   -2.91    5.79
   3  -5  13    4.18    3.11
   3   5  13   12.85    7.03
   3   5  13    5.63    2.98
   3   5  13    8.86    5.88
   3   5  14   26.64    5.00
   3   5  14   36.86    9.62
   3  -5  14   33.70    5.42
   3  -5  14   21.68    7.86
   3  -5  14   31.85    5.25
   3   5  14   22.71    4.62
   3   5  15  230.77   16.36
   3  -5  15  269.32   17.07
   3  -5  15  280.56   17.47
   3  -5  15  236.79   18.37
   3   5  15  265.73   17.02
   3  -5  15  280.19   22.76
   3  -5  16    5.00    5.40
   3  -5  16    4.04    3.52
   3  -5  16    7.58    5.02
   3   5  16   11.64    3.71
   3  -5  16   16.51    4.52
   3   5  16    6.63    3.69
   3  -5  17 1439.46   74.67
   3  -5  17 1375.83   75.04
   3   5  17 1632.60   72.17
   3  -5  17 1459.27   71.44
   3  -5  17 1649.79   72.50
   3  -5  18  217.39   17.28
   3  -5  18  188.34   14.45
   3   5  18  204.04   14.72
   3  -5  18  187.30   16.46
   3  -5  18  193.36   14.45
   3   5  19 1051.41   60.44
   3  -5  19 1066.45   56.39
   3   5  19 1114.13   57.06
   3   5  19 1134.44   53.10
   3  -5  19 1085.27   53.11
   3  -5  19 1021.99   52.45
   3   5  20   16.60    5.68
   3  -5  20    4.68    3.73
   3   5  20    7.71    3.99
   3  -5  20   14.28    5.67
   3   5  20    5.71    6.76
   3   5  21   48.53    6.17
   3   5  21   52.98    8.40
   3  -5  21   62.66    7.46
   3  -5  21   60.71    9.00
   3   5  21   48.85    6.74
   3  -5  22    1.14    3.46
   3   5  22    4.54    4.20
   3   5  22   -2.66    3.64
   3  -5  22    5.57    2.81
   3   5  23   77.72    9.53
   3  -5  23   85.65    7.42
   3  -5  24  154.05   10.35
   3   5  24  182.59   13.55
   3  -5  25   96.59    9.11
   3   5  25  124.56    9.99
   3  -5  26   23.87    4.14
   3   5  26   17.12    3.74
   3   5  27   17.27    2.83
   3  -5  27   16.03    2.75
  -3   7  27   22.05    3.88
  -3  -7  27   24.05    4.10
  -3  -7  26   31.23    5.20
  -3   7  26   48.80    6.05
  -3   7  25   19.14    4.86
  -3  -7  25   15.28    4.59
  -3  -7  24   59.83    7.87
  -3  -7  23   26.69    5.97
   3  -7 -22  152.18   17.00
  -3  -7  22  162.64   14.26
   3  -7 -21  144.09   18.18
   3  -7 -20 1119.55   67.59
   3  -7 -19  391.78   25.89
   3  -7 -19  359.52   34.40
  -3   7  19  360.15   28.75
  -3   7  18  408.47   32.36
   3  -7 -18  483.85   29.56
   3  -7 -18  467.91   41.71
   3  -7 -17   23.16   12.53
  -3   7  17   23.68    8.39
   3  -7 -17   19.06    5.72
  -3   7  16   54.81   11.38
   3  -7 -16   70.88   17.12
   3  -7 -16   77.30    9.79
   3  -7 -15    3.57    3.95
  -3   7  15    6.16    5.95
   3  -7 -15    2.61   10.07
  -3  -7  14   13.06    4.52
   3  -7 -14   25.12   11.89
  -3   7  14   25.11    8.59
  -3   7  14   22.60    7.73
   3  -7 -14   17.32    4.84
   3   7 -14   21.08    5.31
  -3  -7  13   43.76    6.38
  -3   7  13   31.00    9.72
  -3   7  13   33.66    8.97
   3  -7 -13   33.40   10.52
   3   7 -13   36.96    6.60
   3  -7 -13   43.16    6.74
  -3  -7  12  424.15   23.72
  -3  -7  12  430.19   24.19
  -3   7  12  435.86   30.83
   3   7 -12  450.57   26.14
  -3   7  12  375.95   30.56
   3  -7 -12  408.83   32.15
   3  -7 -12  405.64   24.45
  -3  -7  11    3.28    2.48
   3  -7 -11    2.56    3.15
  -3   7  11    2.71    4.72
   3   7 -11   -0.83    3.58
  -3   7  11    4.57    5.09
   3   7 -11    4.85    6.43
   3  -7 -11    5.90    6.52
  -3  -7  11    6.91    3.25
   3  -7 -10  129.54   10.28
  -3   7  10   92.19   13.84
  -3  -7  10  132.36    9.75
   3  -7 -10  122.46   14.83
   3   7 -10  108.73   11.18
  -3  -7  10  127.07    9.92
  -3   7  10  124.16   14.59
   3   7 -10   98.90   15.00
   3   7  -9  179.78   19.55
   3  -7  -9  179.60   17.58
  -3  -7   9  191.33   12.50
  -3   7   9  181.43   18.58
   3  -7  -9  196.15   13.15
  -3   7   9  190.91   17.98
   3   7  -9  202.37   15.47
   3  -7  -8   41.09    5.28
  -3   7   8   21.58    7.51
   3   7  -8   51.44    7.56
   3   7  -8   23.44    7.89
  -3  -7   8   33.49    4.64
  -3  -7   7   58.13    5.81
   3   7  -7   59.66    8.07
   3  -7  -7   66.36    6.67
  -3   7   7   76.31   11.48
   3   7  -7   72.46   11.72
   3  -7  -6  530.96   26.52
  -3  -7   6  530.72   25.48
   3   7  -6  500.84   29.44
  -3  -7   5  117.15    8.09
   3   7  -5  122.11   11.66
   3  -7  -5  125.13    9.14
   3  -7  -4   27.65    4.12
   3   7  -4   29.72    6.44
   3  -7  -3    3.52    2.17
  -3  -7   3    0.36    1.79
  -3  -7   2    0.75    1.84
   3  -7  -2    0.75    1.84
   3  -7  -2    1.36    2.24
   3  -7  -1   36.00    4.25
   3  -7  -1   36.06    4.69
   3  -7   0   74.80    6.43
   3  -7   0   87.84    7.37
  -3  -7  -1    4.06    1.71
   3  -7   1    2.77    2.28
   3   7   1    2.62    5.22
   3   7   2    9.46    5.98
  -3  -7  -2    4.85    1.99
   3  -7   2    6.68    2.85
  -3  -7  -3  107.22    7.84
   3   7   3  128.24   14.92
   3  -7   3  109.57    8.98
   3   7   4  123.32   15.18
   3   7   4  131.13   15.71
  -3   7  -4  143.39   11.43
   3  -7   4  156.25   11.15
  -3  -7  -4  150.98    9.99
   3   7   5   16.32    7.22
   3  -7   5   19.99    4.43
  -3   7  -5   20.75    4.55
   3  -7   5   24.68    4.83
   3   7   5   21.45    7.36
   3   7   6   10.47    5.97
   3   7   6    4.58    6.10
   3  -7   6   11.28    3.66
  -3   7  -6   17.48    4.37
   3  -7   7   68.60    7.67
   3   7   7   67.64   12.19
   3   7   7   65.70   12.12
   3  -7   7   63.22    8.61
   3   7   8  682.11   44.37
   3  -7   8  680.44   38.23
   3  -7   8  698.28   36.51
   3   7   9   73.42   13.16
   3  -7   9   64.68    8.43
  -3  -7  -9   52.88    9.37
   3  -7   9   73.42    9.34
   3  -7  10  562.57   32.32
   3  -7  10  520.23   31.14
   3   7  10  482.18   36.86
  -3  -7 -10  535.35   34.35
   3   7  11  106.72   15.44
   3  -7  11  105.78   12.29
   3  -7  11  116.78   12.35
   3   7  11  118.71   16.81
  -3  -7 -11  102.83   14.58
   3   7  12  814.92   52.42
  -3  -7 -12  910.05   54.77
   3   7  12  811.56   53.28
   3  -7  12  876.44   46.67
   3   7  13  269.87   26.50
   3   7  13  277.73   25.58
   3  -7  13  268.59   20.38
   3   7  14  398.41   32.35
   3  -7  14  415.41   26.66
   3   7  14  359.56   30.64
   3   7  15    3.44    6.43
   3  -7  15    4.16    4.50
   3   7  16   14.48    8.92
   3  -7  16   11.45    5.62
   3   7  17   32.86   10.12
   3  -7  17   35.04    7.39
   3  -7  18   34.17    7.43
   3   7  18   37.37    7.40
   3   7  18   43.97   11.33
   3   7  19   30.11    9.35
   3   7  19   24.87    6.97
   3  -7  19   16.35    6.01
   3  -7  20    9.88    4.84
   3   7  20    8.88    4.87
   3   7  20   13.67    7.48
   3  -7  21   22.01    5.69
   3  -7  22  442.89   25.89
   3  -7  23  122.48   10.35
   3  -7  24  291.60   17.09
   3  -7  25  145.29    9.52
  -3  -9  24  354.42   19.02
  -3   9  23    5.77    3.31
  -3  -9  23    6.61    3.00
  -3  -9  22   11.00    3.90
  -3  -9  21    5.57    4.10
   3  -9 -21    8.59    5.78
   3  -9 -20  130.10   15.93
  -3  -9  20  128.02   11.82
   3  -9 -19   63.56   13.65
  -3  -9  19   80.43    9.31
  -3  -9  18   -0.86    3.89
   3  -9 -18   -2.38    9.74
  -3   9  17   67.60   12.17
   3  -9 -17   74.24   17.92
  -3  -9  17   88.73   10.18
  -3  -9  16  330.54   23.07
  -3   9  16  396.84   29.24
   3  -9 -16  370.05   37.29
   3  -9 -15    2.77    3.99
   3  -9 -15   14.53   12.23
  -3   9  15   10.97    7.71
  -3  -9  15    3.64    4.31
   3  -9 -14 1248.09   76.34
  -3  -9  14 1136.82   58.80
  -3  -9  14 1130.47   58.51
   3  -9 -14 1107.36   58.14
  -3  -9  13  110.14   11.62
  -3   9  13  117.21   17.73
  -3   9  13  151.09   17.53
   3  -9 -13  160.96   22.43
   3  -9 -13  133.42   12.44
   3  -9 -12  913.55   48.30
  -3   9  12 1069.87   57.14
   3  -9 -12 1005.49   61.95
  -3   9  12  906.61   58.76
  -3  -9  12  932.83   48.36
  -3  -9  11   44.75    6.78
  -3   9  11   52.04   10.94
  -3   9  11   50.72   12.70
   3  -9 -11   40.00   11.75
   3   9 -11   49.20    7.95
   3  -9 -11   48.31    7.07
   3   9 -10  324.52   23.39
   3  -9 -10  336.20   21.66
   3  -9 -10  364.37   29.91
  -3   9  10  404.97   32.56
  -3   9  10  379.40   28.41
  -3  -9  10  353.35   21.76
   3  -9  -9   17.44    4.50
   3   9  -9   14.18    7.48
   3  -9  -9   13.49    7.99
  -3   9   9    3.97    6.93
   3   9  -9    9.30    4.81
  -3  -9   9   12.64    4.47
  -3   9   8   58.55   13.51
   3  -9  -8   58.64    7.17
   3   9  -8   62.34    9.43
   3  -9  -8   31.68   10.16
   3   9  -8   46.72   11.63
   3   9  -7    7.87    4.63
   3  -9  -7   14.62    4.00
   3   9  -7    9.56    7.63
  -3   9   7    9.51    7.59
  -3   9   6  256.81   24.99
   3   9  -6  272.14   26.11
   3  -9  -6  254.59   17.29
   3   9  -6  259.32   20.55
   3  -9  -6  236.51   15.93
  -3   9   5  128.24   17.90
   3  -9  -5  153.99   11.54
   3  -9  -5  161.96   12.61
   3   9  -5  157.57   20.01
   3   9  -5  160.41   15.63
   3   9  -4  571.78   34.91
  -3   9   4  536.11   38.10
   3  -9  -4  540.10   28.70
   3  -9  -4  554.79   30.22
   3   9  -4  531.86   39.57
   3  -9  -3   43.35    5.48
  -3   9   3   33.65    9.32
   3   9  -3   58.21    9.73
   3  -9  -3   37.65    6.34
   3   9  -3   43.28   11.48
  -3  -9   2  753.21   37.78
   3   9  -2  769.26   43.97
   3   9  -2  727.91   48.45
   3  -9  -2  755.47   38.71
  -3   9   2  725.23   45.60
   3   9  -1   46.26   11.33
  -3  -9   1   71.48    7.43
   3  -9  -1   62.50    7.54
   3   9   0  664.09   43.86
  -3  -9   0  679.52   34.95
   3  -9   0  695.00   35.85
   3   9   0  679.71   45.65
  -3  -9  -1  131.52   10.38
   3   9   1  110.01   15.55
   3  -9   1  110.83   10.28
   3   9   1   97.24   15.88
   3   9   2  289.16   26.66
   3   9   2  340.69   29.47
   3  -9   2  344.82   20.65
  -3   9  -2  317.07   22.28
   3   9   3   11.68    8.01
   3   9   3   10.47    8.11
   3  -9   3   24.19    5.28
  -3   9  -3   17.26    5.31
  -3   9  -4  306.41   20.91
   3  -9   4  317.86   20.18
   3   9   4  308.55   27.60
   3  -9   4  315.31   20.25
   3   9   4  304.99   28.48
   3   9   5   20.55    9.80
   3  -9   5   33.12    6.12
   3   9   5   27.66    9.99
   3  -9   6  353.62   22.63
   3   9   6  334.25   29.66
   3   9   6  411.19   33.56
   3   9   7   56.59   12.62
   3   9   7   76.29   15.79
   3  -9   7   87.01    9.86
   3   9   8  307.20   28.74
   3  -9   8  296.40   20.56
   3   9   8  301.02   29.31
  -3  -9  -8  279.50   23.24
  -3  -9  -9   18.20    7.77
   3   9   9   22.65   10.72
   3  -9   9    2.90    4.96
   3   9   9    2.03    8.53
  -3  -9 -10    1.55    5.78
   3   9  10    6.13    9.03
   3   9  10   11.39   10.07
   3  -9  10    3.19    4.93
  -3  -9 -11  290.69   25.53
  -3  -9 -11  231.51   19.00
   3   9  11  280.06   28.30
   3  -9  11  256.01   19.89
   3   9  11  254.70   25.56
   3  -9  11  228.61   19.90
   3  -9  12   62.13    9.50
   3   9  12   52.27   12.25
  -3  -9 -12   62.87    9.42
  -3  -9 -12   81.77   15.39
   3   9  13   23.50    9.84
   3  -9  13    9.92    5.09
  -3  -9 -13   15.31   10.36
   3   9  14    1.88    8.11
   3  -9  14    6.68    5.13
   3  -9  15  232.04   17.34
   3   9  15  193.04   21.97
   3  -9  16  252.41   18.57
   3   9  16  258.05   18.70
   3   9  16  297.46   25.24
   3   9  17   11.90    4.75
   3   9  17   15.01    8.21
   3  -9  17   13.36    5.00
   3   9  18  511.01   28.48
   3   9  18  539.77   34.37
   3  -9  18  469.74   27.87
   3   9  19  147.09   15.40
   3  -9  19  134.39   11.29
   3   9  19  139.70   11.41
   3  -9  20   99.87    8.91
   3   9  20  111.65    9.44
   3   9  21   26.20    4.38
   3  -9  21   27.44    4.33
   3   9  22   20.84    3.28
  -3  11  20  182.39   11.17
   3 -11 -19  233.77   16.89
  -3  11  19  227.94   13.97
   3 -11 -18  103.70   10.42
   3 -11 -18  104.87   12.96
   3 -11 -17  306.97   20.69
   3 -11 -17  310.71   26.62
   3 -11 -16   12.74    5.21
   3 -11 -16    8.10    9.18
   3 -11 -15   14.32   10.56
   3 -11 -15    6.99    4.39
   3 -11 -14    4.42    4.19
   3 -11 -14   23.28    9.67
   3 -11 -13    1.77    4.19
  -3 -11  13    3.99    5.18
   3 -11 -13   -2.62   11.31
   3 -11 -12   21.17    5.71
   3 -11 -12   22.75   12.71
  -3 -11  12   18.55    5.93
   3 -11 -11   62.99    8.85
  -3 -11  11   64.51    9.10
   3 -11 -11   85.46   18.11
   3 -11 -10   71.93    9.11
  -3 -11  10   73.32    9.23
   3 -11 -10   81.69   16.93
  -3  11  10   69.80   13.97
   3 -11  -9  510.00   38.15
  -3 -11   9  455.36   27.47
   3 -11  -9  447.90   27.82
  -3  11   9  495.90   37.16
  -3 -11   8  284.40   19.65
  -3  11   8  358.60   29.88
   3 -11  -8  289.40   26.92
   3 -11  -8  278.25   19.65
   3 -11  -7  833.10   51.48
   3  11  -7  733.37   48.98
  -3  11   7  779.99   51.95
   3 -11  -7  797.18   42.32
  -3 -11   7  822.72   42.18
   3  11  -6   88.00   11.83
   3  11  -6   88.28   15.56
   3 -11  -6   94.09   10.30
  -3  11   6  110.51   16.68
   3 -11  -6   93.04   14.62
   3  11  -5  175.16   22.00
  -3  11   5  156.98   19.40
   3  11  -5  177.46   17.79
   3 -11  -5  186.23   14.85
   3 -11  -5  209.66   21.05
   3  11  -4   70.74   15.40
   3 -11  -4   51.43    7.64
  -3  11   4   66.90   12.69
   3  11  -4   40.42    9.10
   3  11  -3  519.24   40.27
   3  11  -3  437.10   32.22
   3 -11  -3  493.79   28.19
  -3  11   3  443.97   33.04
   3  11  -2   11.62    9.56
   3 -11  -2   24.35    5.72
   3  11  -2   22.83    7.84
   3  11  -1   61.07   10.85
   3  11  -1   76.96   15.88
  -3  11   1   71.24   10.90
   3 -11  -1   73.36    8.80
   3 -11   0  169.97   13.56
   3  11   0  185.82   23.22
  -3  11   0  137.75   15.02
  -3 -11  -1  294.76   19.00
   3  11   1  306.61   29.88
   3 -11   1  322.40   20.78
   3  11   1  269.26   23.56
   3 -11   2  103.54   10.93
   3  11   2   85.77   12.93
  -3 -11  -2   91.55    9.49
   3 -11   2  110.25   10.97
   3  11   2  109.76   17.87
   3 -11   3   27.28    6.07
  -3 -11  -3   23.19    5.28
   3  11   3   27.22   10.77
   3  11   3   17.88    6.58
   3  11   4    9.04    7.89
   3 -11   4   16.49    5.60
   3  11   4   20.42    8.81
  -3 -11  -4   20.02    5.15
   3  11   5   76.25   15.11
   3 -11   5   73.76    9.23
   3  11   5   55.58   12.19
  -3 -11  -5   63.83    8.52
   3 -11   6   49.61    7.95
  -3 -11  -6   44.26    7.58
   3  11   6   60.21   14.45
   3  11   6   76.85   13.63
  -3 -11  -6   56.76   10.84
   3  11   7    3.58    6.91
  -3 -11  -7    2.98    4.89
   3 -11   7   -0.96    4.88
  -3 -11  -7    2.85    7.28
   3  11   7   13.22    9.51
   3 -11   8    8.02    5.34
  -3 -11  -8   14.60    7.75
  -3 -11  -8   20.82    6.72
   3  11   8   22.53    9.19
   3  11   8   23.86   10.49
  -3 -11  -9   50.72    9.46
   3 -11   9   42.28    8.40
   3  11   9   74.80   13.09
  -3 -11  -9   55.07   11.23
   3  11   9   27.46   10.19
   3  11  10  101.06   15.36
  -3 -11 -10  115.13   16.26
   3  11  11  313.70   25.86
   3  11  11  361.10   30.10
  -3 -11 -11  282.59   26.53
   3  11  12  141.03   16.11
   3  11  12  158.56   19.04
  -3 -11 -12  120.20   17.13
   3  11  13   36.32    8.77
   3  11  14  156.80   15.67
   3  11  15   26.91    7.09
  -3 -11 -15   26.22    7.39
   3  11  16    6.01    4.63
  -3 -11 -16   12.37    5.13
   3 -13 -14   17.16    7.57
   3 -13 -13  682.81   46.51
   3 -13 -12   35.04   13.23
   3 -13 -11  230.96   28.64
   3 -13 -11  206.21   16.69
   3 -13 -10  159.89   14.43
   3 -13 -10  191.49   25.54
  -3 -13   9    5.23    3.96
   3 -13  -9   12.59   11.40
   3 -13  -9    1.21    3.09
   3 -13  -9    8.60    4.98
   3 -13  -8   -2.36   11.59
  -3 -13   8    1.44    3.62
   3 -13  -8    5.05    4.30
   3 -13  -8    3.16    3.23
   3 -13  -7    1.95    3.19
   3 -13  -7    0.82    3.88
  -3 -13   7    2.83    3.48
   3 -13  -7    2.18    8.68
   3 -13  -6   72.77   15.64
   3 -13  -6   83.33    9.72
   3 -13  -6   91.89    9.06
  -3 -13   6   79.15    8.98
  -3 -13   5    7.73    4.20
   3 -13  -5    9.43    8.93
   3 -13  -5    9.39    4.36
   3 -13  -5   12.75    4.51
   3 -13  -4   12.94    4.57
  -3 -13   4    2.13    3.38
   3 -13  -4   14.53    5.13
   3  13  -3  209.97   19.86
  -3 -13   3  226.37   15.98
   3 -13  -3  225.01   16.27
   3 -13  -3  219.16   15.56
  -3 -13   2   37.91    6.56
   3 -13  -2   49.26    7.07
   3  13  -2   43.62   11.00
   3 -13  -1   35.19    6.16
   3 -13  -1   39.11    9.97
   3  13  -1   37.63   10.16
   3  13   0   47.21   11.48
   3 -13   0   35.52    9.35
   3  13   1  265.20   25.78
   3 -13   1  253.37   22.27
  -3 -13  -1  298.46   24.33
   3 -13   2    7.00    4.45
   3 -13   2   -1.24    5.35
   3  13   2   20.56    9.72
  -3 -13  -2    8.66    6.83
  -3 -13  -3  159.15   17.45
   3 -13   3  153.43   13.50
   3  13   3  199.60   21.45
   3 -13   4  118.16   11.57
  -3 -13  -4  101.47   14.12
   3  13   4  118.04   16.57
   3  13   5  375.63   29.84
   3 -13   5  349.14   23.36
  -3 -13  -5  385.26   28.14
   3 -13   6    8.06    4.82
  -3 -13  -6   -2.81    6.66
   3  13   7  234.73   21.94
  -3 -13  -7  267.77   22.95
   3 -13   8    5.15    3.46
  -3 -13  -8    8.62    7.21
  -3 -13  -9   39.23    9.41
   3 -13   9   -0.46    1.59
  -3 -13 -10   32.08    7.71
  -4   0  30  162.47   11.29
  -4   0  29   -0.55    3.07
  -4   0  28   -0.52    1.43
  -4   0  28  752.10   21.71
  -4   0  27    6.36    3.92
  -4   0  27    1.27    3.20
  -4   0  26  476.85   27.30
  -4   0  26  478.88   27.84
  -4   0  25   -0.79    4.12
  -4   0  24  533.49   31.60
  -4   0  24  564.25   31.47
  -4   0  23    0.81    3.82
  -4   0  23    2.59    3.91
  -4   0  22   70.17    8.34
  -4   0  22   53.52    7.93
   4   0 -22   48.69    9.10
  -4   0  22   54.88    7.93
  -4   0  21   -2.52    4.73
   4   0 -21   -2.66    5.45
  -4   0  21    0.76    3.94
  -4   0  20   17.52    4.45
  -4   0  20   15.75    4.74
   4   0 -20   18.16    7.04
  -4   0  19   -2.00    3.35
   4   0 -19    4.34    5.41
  -4   0  19    1.75    2.58
   4   0 -18  280.29   24.04
  -4   0  18  268.04   16.56
  -4   0  18  264.62   17.14
   4   0 -17   -3.01    6.00
  -4   0  17    4.94    2.87
  -4   0  17    3.38    2.82
  -4   0  16  352.52   19.68
  -4   0  16  363.05   20.34
  -4   0  15    3.70    2.41
  -4   0  15    1.83    2.69
   4   0 -14  200.36   12.89
  -4   0  14  178.34   11.28
  -4   0  14  174.51   11.56
  -4   0  13    4.65    2.32
  -4   0  13    4.02    2.10
   4   0 -13    1.95    2.82
   4   0 -12    4.07    2.73
   4   0 -11    2.13    2.69
   4   0 -10   67.06    6.37
   4   0  -9   -1.55    2.80
   4   0  -8   13.04    3.53
   4   0  -7   -0.72    3.33
   4   0  -6 3438.71  149.47
   4   0  -5   -0.73    1.02
   4   0  -5   -0.66    3.28
   4   0  -4   78.05    4.11
   4   0  -4   71.43    4.37
   4   0  -3    0.08    0.85
   4   0  -3    0.59    0.97
   4   0  -2  233.11   10.88
   4   0  -2  231.09   11.00
   4   0  -2  240.27   12.71
   4   0  -1   -0.11    1.09
   4   0  -1    1.64    2.11
   4   0   0   22.68    2.26
   4   0   0   21.29    2.40
   4   0   1    0.94    1.15
   4   0   1    0.76    1.52
   4   0   2 2655.43  114.36
   4   0   3    4.07    2.06
   4   0   4 9999.00  425.83
   4   0   5    3.49    2.25
   4   0   6 1742.99   77.25
   4   0   7    1.01    2.45
   4   0   8 1920.73   84.25
   4   0   8 1862.03   84.15
   4   0   9   -0.39    2.34
   4   0   9    1.22    2.36
   4   0  10   64.07    6.25
   4   0  10   58.01    6.03
   4   0  11   -0.47    2.64
   4   0  11   -0.49    2.48
   4   0  12  171.05   12.18
   4   0  12  173.73   12.14
   4   0  13    6.13    3.23
   4   0  13    1.73    2.79
   4   0  13   -3.69    3.63
   4   0  14  362.53   26.03
   4   0  14  385.01   22.57
   4   0  14  377.99   22.77
   4   0  14  419.04   22.86
   4   0  14  398.54   24.17
   4   0  15    0.68    3.06
   4   0  15    3.94    3.41
   4   0  15   -0.70    2.87
   4   0  15    4.44    4.79
   4   0  15    0.85    3.83
   4   0  16  806.40   42.51
   4   0  16  816.42   42.17
   4   0  16  833.14   42.51
   4   0  16  828.68   44.00
   4   0  17    4.73    4.00
   4   0  17    8.29    4.07
   4   0  17    9.25    4.41
   4   0  17   10.35    4.56
   4   0  18 1795.47   82.54
   4   0  18 1755.25   84.18
   4   0  18 1696.40   82.32
   4   0  18 1710.59   82.14
   4   0  19    0.85    4.21
   4   0  19   10.05    4.51
   4   0  19    2.99    4.31
   4   0  19    9.91    4.59
   4   0  20   90.87   10.15
   4   0  20   81.07    9.72
   4   0  20   87.68   10.88
   4   0  20   78.87    9.56
   4   0  21    5.89    3.90
   4   0  21    5.68    5.01
   4   0  21    0.84    3.43
   4   0  21    2.50    3.78
   4   0  22   10.61    4.53
   4   0  22    2.64    3.80
   4   0  22    6.24    4.13
   4   0  23    3.45    3.52
   4   0  23   -6.20    4.61
   4   0  23    2.36    3.56
   4   0  24  579.88   31.93
   4   0  24  621.34   33.28
   4   0  24  691.05   34.21
   4   0  25   -1.22    3.43
   4   0  25    2.73    2.84
   4   0  26   12.30    3.65
   4   0  26   15.52    3.23
   4   0  26   14.97    3.19
   4   0  27   -2.16    2.65
  -4  -2  30   75.11    6.56
  -4  -2  29   12.20    3.64
  -4   2  29   16.15    4.12
  -4  -2  29   14.88    3.79
  -4   2  28   10.83    3.87
  -4  -2  28   10.42    4.05
  -4   2  28   10.65    3.77
  -4  -2  28    7.82    4.05
  -4  -2  27   -1.30    3.50
  -4   2  27    2.72    3.35
  -4   2  27    2.67    3.35
  -4  -2  27    2.98    3.87
  -4   2  26   86.64    9.19
  -4   2  26   82.46    9.45
  -4  -2  26   79.60    9.03
  -4  -2  25   55.53    7.74
  -4   2  25   53.56    8.26
  -4   2  25   71.39    8.44
  -4   2  24   78.30    9.59
  -4   2  24   59.91    8.21
  -4   2  24   62.35    8.45
   4  -2 -24   64.49    9.74
  -4  -2  24   64.14    8.20
  -4  -2  24   43.95    7.47
  -4   2  23  123.61   11.79
  -4  -2  23   83.58   10.08
  -4  -2  23  105.19   10.47
  -4   2  23  134.70   11.84
   4  -2 -23   93.27   12.80
   4  -2 -22  217.93   20.26
  -4  -2  22  234.98   16.67
  -4   2  22  249.76   16.93
  -4   2  22  194.02   16.17
  -4  -2  22  235.87   17.06
   4  -2 -21  420.33   30.37
  -4  -2  21  393.62   23.91
  -4   2  21  390.03   24.40
  -4   2  21  395.40   23.98
  -4  -2  21  400.49   24.06
  -4  -2  20 1009.27   50.56
   4  -2 -20 1035.69   59.22
  -4  -2  20 1002.67   50.47
  -4   2  20 1038.81   50.91
  -4  -2  19  170.17   13.03
   4  -2 -19  162.20   18.96
  -4   2  19  178.17   13.43
  -4  -2  19  166.91   12.86
  -4  -2  18  505.02   27.16
   4  -2 -18  503.92   36.90
   4   2 -18  519.60   27.64
  -4  -2  18  507.71   27.40
  -4   2  18  482.35   26.98
  -4   2  18  458.61   25.43
  -4   2  17  178.00   11.52
   4  -2 -17  186.89   21.22
  -4   2  17  177.41   12.66
   4   2 -17  165.47   12.65
  -4  -2  17  165.56   12.31
  -4  -2  17  184.91   12.71
  -4  -2  16  263.75   16.44
  -4   2  16  268.42   15.34
  -4   2  16  276.70   16.57
  -4   2  16  252.71   21.69
   4   2 -16  274.82   17.24
   4  -2 -16  270.67   26.55
  -4  -2  16  272.04   16.42
   4   2 -16  275.64   22.98
  -4   2  15   12.10    3.07
  -4   2  15   11.70    2.74
   4   2 -15    6.43    3.26
  -4  -2  15   12.60    3.36
  -4  -2  15    3.80    2.58
   4   2 -14  276.01   17.35
  -4   2  14  282.04   15.36
  -4  -2  14  288.55   16.58
  -4   2  14  295.31   16.46
  -4  -2  14  295.83   16.50
  -4  -2  13    4.29    2.57
   4   2 -13    7.81    3.23
  -4  -2  13    5.60    2.33
  -4   2  13    9.66    2.31
  -4   2  13    8.56    2.61
  -4   2  12  172.99   10.90
   4   2 -12  193.88   12.47
  -4  -2  12  194.04   11.32
  -4  -2  12  171.47   11.01
  -4   2  12  190.41   10.37
   4   2 -11   45.50    5.47
   4   2 -10  345.77   19.22
   4  -2  -9  100.41    6.02
   4   2  -9   98.19    7.98
   4  -2  -8  120.40    6.79
   4   2  -8  130.24    9.17
   4   2  -7  315.43   16.93
   4  -2  -7  298.16   14.27
   4   2  -6 1049.63   47.96
   4  -2  -6 1030.64   45.25
   4  -2  -5  403.75   19.51
   4   2  -5  415.30   21.42
   4  -2  -5  429.46   19.10
   4  -2  -4  283.25   13.65
   4   2  -4  279.42   15.33
   4   2  -3  779.62   37.95
   4  -2  -3  847.83   36.59
   4   2  -2  382.26   17.46
   4  -2  -2  392.81   18.02
   4  -2  -1  234.80   11.25
   4  -2  -1  248.82   11.75
   4   2  -1  238.24   11.28
   4   2  -1  234.05   11.69
   4  -2  -1  232.93   11.59
   4   2  -1  235.04   11.07
   4  -2   0  246.23   11.41
   4   2   0  242.31   11.36
   4   2   0  230.43   11.88
   4  -2   0  248.26   11.76
   4  -2   0  202.90   11.55
   4   2   1 1362.93   60.92
   4  -2   1 1442.03   61.07
   4  -2   2  186.13    9.95
   4   2   2  194.65    9.98
   4   2   3  224.71   11.72
   4  -2   3  223.78   11.69
  -4   2  -3  224.43   10.31
   4   2   4   96.91    6.33
   4  -2   4   95.20    6.27
  -4   2  -4   87.86    4.44
   4   2   5  284.38   13.73
   4  -2   5  282.48   13.78
  -4   2  -5  241.07   11.24
   4   2   6  514.90   24.70
   4  -2   6  498.58   24.68
   4  -2   7   68.33    5.88
   4   2   7   67.03    5.73
   4   2   8  186.61   11.30
   4  -2   8  171.36   10.91
   4   2   8  165.75   10.87
   4  -2   8  188.15   11.19
   4  -2   9  729.28   35.96
   4   2   9  798.13   36.37
   4  -2   9  737.90   35.87
   4   2   9  734.64   35.97
   4   2  10  265.53   15.73
   4   2  10  292.13   16.12
   4  -2  10  252.06   15.37
   4  -2  10  265.51   15.52
   4  -2  11 1483.10   66.27
   4   2  11 1428.98   66.48
   4   2  11 1477.08   66.56
   4  -2  11 1389.87   66.11
   4   2  12 2086.11   88.77
   4  -2  12 1867.48   87.83
   4   2  12 1950.99   88.36
   4  -2  12 1909.77   87.95
   4  -2  13  752.81   38.36
   4   2  13  777.95   38.80
   4   2  13  792.05   38.93
   4   2  13  777.01   46.31
   4  -2  13  765.93   38.38
   4  -2  13  779.79   40.80
   4  -2  14  111.54   11.18
   4  -2  14   99.87    9.27
   4  -2  14  119.25    9.92
   4   2  14  125.38   10.18
   4   2  14  134.32   10.67
   4   2  14  111.28   14.56
   4  -2  15  149.54   13.14
   4   2  15  142.29   16.81
   4   2  15  134.26   12.81
   4   2  15  140.42   11.51
   4  -2  15  155.54   11.68
   4   2  15  122.10   10.90
   4  -2  15  130.38   11.03
   4  -2  16   42.99    5.98
   4  -2  16   38.01    6.04
   4   2  16   30.01    6.91
   4   2  16   37.86    6.16
   4  -2  16   27.68    6.12
   4   2  16   42.88    6.23
   4  -2  16   43.19    7.35
   4   2  17  505.62   30.86
   4  -2  17  474.34   28.22
   4  -2  17  487.34   29.79
   4   2  17  546.16   29.24
   4   2  17  484.83   28.55
   4  -2  17  548.16   30.91
   4  -2  17  477.20   28.20
   4   2  17  518.25   35.61
   4   2  18  171.21   13.67
   4  -2  18  153.22   13.14
   4   2  18  182.97   19.13
   4  -2  18  156.81   14.31
   4  -2  18  173.34   15.01
   4   2  18  167.99   15.13
   4  -2  18  146.06   13.12
   4   2  18  180.91   13.91
   4  -2  19   76.39    9.13
   4   2  19   57.58    8.25
   4   2  19   63.28    8.34
   4  -2  19   59.43    8.03
   4   2  19   68.30    9.60
   4  -2  19   68.25    8.83
   4  -2  19   57.97    9.05
   4  -2  20   50.90    7.74
   4  -2  20   66.70    8.10
   4   2  20   41.87    6.89
   4  -2  20   50.19    8.34
   4   2  20   52.51    8.59
   4  -2  20   45.90    7.55
   4   2  20   53.61    7.66
   4  -2  21   61.36    8.29
   4  -2  21   85.60    9.36
   4   2  21   90.74   10.47
   4  -2  21   39.85    7.15
   4   2  21   47.33    7.60
   4  -2  21   68.05    9.34
   4   2  21   68.29    8.36
   4  -2  22  966.89   48.22
   4   2  22 1008.73   48.63
   4   2  22  932.05   49.34
   4  -2  22  949.10   49.27
   4  -2  22  867.11   46.93
   4   2  23  442.67   25.55
   4   2  23  422.18   26.24
   4  -2  23  445.81   25.62
   4  -2  23  410.76   25.86
   4  -2  24  452.88   25.48
   4   2  24  510.00   26.15
   4  -2  24  456.11   26.09
   4   2  24  471.17   26.59
   4   2  25  226.67   15.40
   4  -2  25  230.75   14.46
   4  -2  25  228.22   14.96
   4   2  25  219.58   14.24
   4  -2  25  224.42   15.19
   4   2  25  246.80   15.25
   4  -2  26  332.51   19.19
   4   2  26  359.17   19.13
   4   2  26  357.61   19.86
   4  -2  26  360.82   19.15
   4   2  27    2.95    2.03
  -4  -4  30    2.52    2.17
  -4  -4  29    8.58    3.13
  -4   4  29    5.12    2.42
  -4   4  28    8.12    2.86
  -4  -4  28   13.14    3.35
  -4   4  28    8.82    3.63
  -4  -4  28    9.36    3.92
  -4  -4  27  695.89   35.86
  -4  -4  27  717.69   37.92
  -4   4  27  740.12   36.07
  -4   4  27  732.82   37.74
  -4  -4  26   27.67    5.23
  -4   4  26   30.53    6.18
  -4   4  26   29.94    5.60
  -4   4  25  514.45   30.33
  -4   4  25  493.52   27.89
  -4  -4  25  518.10   28.15
  -4   4  24    3.46    3.06
  -4  -4  24    1.37    3.18
   4  -4 -24    1.22    5.53
  -4  -4  23  203.42   15.36
  -4   4  23  234.73   15.70
   4  -4 -23  180.49   15.74
   4  -4 -23  192.06   19.17
  -4   4  23  217.63   15.65
  -4  -4  23  184.82   14.50
  -4   4  22    3.05    3.32
   4  -4 -22    8.99    4.53
  -4  -4  22   12.90    4.66
   4  -4 -22   13.94    7.92
  -4   4  22   13.71    4.37
  -4  -4  22   10.73    4.33
  -4  -4  21   21.94    5.22
   4  -4 -21   22.15    9.05
  -4   4  21   17.34    4.79
  -4   4  21   23.50    5.43
  -4  -4  21   15.93    4.41
  -4  -4  20   17.91    4.83
   4  -4 -20   27.97    9.39
  -4  -4  20   17.68    4.75
  -4   4  20   24.92    5.33
  -4   4  20   22.66    5.11
  -4  -4  20   19.93    4.99
  -4   4  19    3.96    3.25
  -4  -4  19    0.70    3.12
   4  -4 -19    2.04    7.64
  -4  -4  19    2.63    3.11
  -4   4  19    6.99    3.44
  -4   4  18    6.22    3.14
   4   4 -18    6.66    3.36
  -4   4  18    9.41    6.37
   4  -4 -18   11.18    8.90
  -4  -4  18   11.78    3.98
  -4  -4  17  779.86   38.73
   4  -4 -17  773.57   54.73
   4   4 -17  778.22   39.58
  -4   4  17  661.63   43.59
  -4   4  17  801.43   38.85
   4   4 -16   65.46    7.58
   4  -4 -16   43.55   14.51
  -4  -4  16   78.71    7.48
  -4   4  16   76.01   10.92
  -4   4  16   69.73    7.36
   4  -4 -15  328.07   34.59
  -4   4  15  413.85   21.72
   4   4 -15  373.30   22.41
  -4   4  15  328.84   25.73
  -4  -4  15  426.19   21.85
  -4   4  14   11.01    3.10
  -4  -4  14   15.40    3.53
   4   4 -14   12.12    3.89
   4  -4 -14   19.13   11.56
  -4  -4  14   18.24    3.74
  -4   4  14   21.61    6.39
  -4  -4  13 2022.52   86.54
  -4   4  13 1947.66   85.62
   4   4 -13 1803.87   87.20
  -4  -4  13 1888.96   85.54
  -4  -4  12   75.45    6.47
  -4  -4  12   57.19    5.42
   4   4 -12   65.49    6.96
  -4   4  12   56.73    5.48
  -4  -4  11  523.64   24.97
  -4   4  11  486.50   24.00
  -4  -4  11  474.58   23.95
   4   4 -11  474.08   26.11
  -4  -4  10    5.86    2.38
   4   4 -10    2.73    2.84
   4   4  -9 1265.02   59.52
  -4   4   8    0.79    0.72
   4   4  -8   -1.63    3.05
   4   4  -7  630.73   32.36
   4  -4  -7  629.62   29.84
   4  -4  -6   56.51    4.76
   4   4  -6   49.13    6.31
   4   4  -5  199.41   13.57
   4  -4  -5  218.89   11.72
   4   4  -4   -0.94    2.95
   4  -4  -4   -0.24    1.69
   4  -4  -3  354.52   15.27
   4   4  -3  357.19   15.24
   4  -4  -3  328.77   16.13
   4   4  -2    7.09    1.75
   4   4  -2    7.82    1.36
   4  -4  -2    8.11    1.77
  -4  -4   2    9.40    1.24
   4  -4  -2   12.24    2.39
   4  -4  -1   90.93    6.17
   4   4  -1   96.08    5.09
   4  -4   0    4.35    1.79
   4  -4   1   64.88    4.22
   4  -4   1   77.03    5.37
   4   4   1   73.40    4.33
   4   4   2   13.60    1.97
   4  -4   2   16.37    2.09
   4  -4   3  199.75   11.74
   4  -4   3  203.57   10.72
   4   4   3  204.34   10.63
   4  -4   4   39.32    4.50
   4  -4   4   38.08    3.74
   4   4   4   45.33    3.88
  -4   4  -4   38.40    3.87
   4  -4   4   35.54    4.59
   4   4   5 2323.57  102.16
   4  -4   5 2366.62  102.35
  -4   4  -5 2294.31  101.81
   4  -4   5 2422.84  103.75
   4  -4   6  142.76   10.49
  -4   4  -6  152.40    8.62
   4   4   6  139.95    9.18
   4  -4   6  162.36    9.67
   4  -4   7  182.79   11.35
   4  -4   7  175.31   12.54
   4   4   7  171.11   10.74
   4  -4   7  183.39   11.18
   4  -4   8    0.66    3.47
   4  -4   8    4.27    2.64
   4   4   8    3.53    2.31
   4   4   8    2.31    2.17
   4  -4   8    2.48    2.23
   4   4   9  107.25    8.17
   4  -4   9  103.17    8.47
   4  -4   9  103.17    8.25
   4  -4   9   91.19   10.09
   4   4   9  103.20    8.17
   4  -4  10   40.19    5.31
   4  -4  10   36.50    5.10
   4   4  10   44.43    5.40
   4   4  10   51.15    5.73
   4  -4  11  215.41   14.00
   4   4  11  183.49   18.07
   4   4  11  236.06   14.12
   4   4  11  202.86   13.45
   4  -4  11  214.66   13.84
   4   4  11  185.23   17.96
   4   4  12    9.05    5.44
   4   4  12   10.71    6.47
   4   4  12    4.39    2.86
   4  -4  12    6.64    2.83
   4   4  12    4.39    3.01
   4  -4  12    3.36    2.92
   4  -4  13  182.89   12.77
   4   4  13  185.12   12.75
   4   4  13  176.74   12.66
   4   4  13  152.69   17.02
   4   4  13  154.35   16.95
   4  -4  13  164.45   12.28
   4  -4  14    3.76    3.42
   4   4  14    7.38    6.37
   4  -4  14   -0.83    3.59
   4   4  14    4.38    2.77
   4  -4  14    1.86    2.87
   4   4  14    3.14    3.37
   4  -4  15  831.90   42.24
   4   4  15  784.96   41.87
   4   4  15  905.95   42.84
   4   4  15  792.60   49.41
   4  -4  15  833.80   44.50
   4  -4  15  843.41   42.37
   4   4  16    6.96    3.51
   4  -4  16   13.14    4.49
   4   4  16    4.83    3.41
   4  -4  16    8.50    5.09
   4   4  16    3.09    6.15
   4  -4  16   10.26    4.19
   4  -4  17 1069.27   54.00
   4  -4  17 1162.71   59.00
   4   4  17 1116.88   54.33
   4  -4  17 1133.41   54.53
   4   4  17 1083.65   61.83
   4   4  17 1066.06   53.84
   4   4  17 1088.52   57.76
   4   4  18   45.92    6.82
   4   4  18   47.12   10.42
   4   4  18   47.05    6.67
   4  -4  18   42.17    6.85
   4   4  18   40.88    8.42
   4  -4  18   37.58    6.33
   4  -4  18   29.66    7.22
   4  -4  19 1935.61   86.52
   4   4  19 1795.07   85.59
   4   4  19 1904.16   94.00
   4   4  19 1922.16   89.91
   4   4  19 1995.04   86.66
   4  -4  19 1711.13   85.38
   4  -4  19 1698.02   87.32
   4  -4  20    5.14    4.26
   4   4  20   -2.79    6.88
   4   4  20    7.30    4.35
   4   4  20   -3.11    4.36
   4  -4  20    0.85    3.66
   4  -4  21   33.52    7.43
   4  -4  21   29.37    5.99
   4   4  21   31.14    5.82
   4   4  21   37.50    7.43
   4  -4  21   26.62    5.54
   4  -4  22    9.15    4.77
   4   4  22    9.55    4.06
   4  -4  22   13.52    4.46
   4   4  22    4.57    4.06
   4   4  22   15.13    3.96
   4  -4  23    9.71    3.41
   4   4  23    6.44    3.04
   4  -4  23    4.57    2.70
   4  -4  23   13.08    5.00
   4   4  23    2.46    3.88
   4   4  24    2.83    3.98
   4  -4  24    0.43    2.16
   4  -4  24   -0.70    3.51
   4   4  24   -0.42    2.23
   4  -4  25   10.22    3.74
   4   4  25    7.53    3.56
   4   4  26    0.44    2.42
   4  -4  26   -1.28    2.39
   4   4  27   86.14    6.41
  -4   6  28   28.12    4.33
  -4  -6  28   29.11    4.60
  -4  -6  27   10.66    4.02
  -4   6  27    9.80    3.63
  -4  -6  26   32.52    5.96
  -4   6  26   35.29    6.15
  -4  -6  25   68.41    8.58
   4  -6 -24   31.08    7.32
   4  -6 -23   58.56   10.88
   4  -6 -22  135.08   17.50
   4  -6 -21  226.01   24.06
  -4  -6  21  208.29   14.38
   4  -6 -20  558.01   43.21
  -4  -6  20  574.07   30.24
  -4  -6  19   40.72    5.85
  -4   6  19   31.28    8.78
   4  -6 -19   44.61   13.42
   4  -6 -18  295.77   20.34
  -4   6  18  251.99   22.62
   4  -6 -18  220.84   28.02
  -4  -6  18  243.43   15.91
  -4  -6  17  113.94   10.54
   4  -6 -17   92.12   19.58
  -4   6  17  108.45   14.56
  -4  -6  17   98.97    8.95
   4  -6 -17  115.62   11.92
  -4  -6  16  279.45   17.20
  -4  -6  16  231.31   15.23
   4  -6 -16  279.53   18.94
   4   6 -16  231.98   17.13
  -4   6  16  212.57   20.71
   4  -6 -16  221.19   28.57
  -4  -6  15  167.80   12.47
   4   6 -15  160.77   13.37
   4  -6 -15  153.94   13.17
  -4  -6  15  160.72   11.31
  -4   6  15  135.14   15.63
   4  -6 -15  167.38   23.47
  -4  -6  14  187.28   12.80
  -4   6  14  155.77   16.57
   4   6 -14  175.06   13.88
  -4  -6  14  155.00   13.10
  -4  -6  14  172.32   11.48
   4  -6 -14  141.75   20.38
   4  -6 -14  177.77   13.59
  -4  -6  13  101.20    9.32
  -4   6  13  105.98   13.19
   4  -6 -13  114.60   16.71
   4  -6 -13  120.47   10.22
  -4  -6  13  104.91    8.26
  -4   6  13   96.77   13.48
   4   6 -13  119.97   10.80
  -4  -6  13  112.68    9.40
  -4  -6  12  211.73   13.81
  -4  -6  12  219.65   12.96
  -4  -6  12  244.44   14.40
   4  -6 -12  212.18   21.13
   4  -6 -12  215.21   14.71
  -4   6  12  193.02   17.88
  -4   6  12  187.78   18.68
   4   6 -12  217.22   15.78
  -4   6  11    5.38    5.09
   4  -6 -11   10.63    5.74
  -4  -6  11    3.70    2.65
  -4   6  11   11.18    6.24
  -4  -6  11    7.65    2.96
   4   6 -11    3.84    3.40
   4  -6 -11    8.32    3.22
  -4  -6  10  341.43   17.95
  -4   6  10  274.91   22.49
   4  -6 -10  319.96   18.28
   4   6 -10  285.49   19.77
   4  -6 -10  295.21   22.96
  -4  -6   9  164.98   10.54
   4  -6  -9  148.94   10.76
   4   6  -9  159.37   13.02
   4  -6  -9  144.86   14.28
   4  -6  -8   20.01    3.84
   4   6  -8   25.33    5.74
  -4  -6   8   29.11    3.90
   4   6  -7    2.27    3.79
   4  -6  -7    8.39    2.90
  -4  -6   7    3.08    2.15
  -4  -6   6  214.15   12.09
   4  -6  -6  208.46   12.80
   4   6  -6  214.12   15.80
  -4  -6   5    3.08    1.71
   4  -6  -5    6.79    2.53
   4   6  -5   -0.72    3.18
   4   6  -4   51.69    7.05
   4  -6  -4   67.61    5.59
  -4  -6   4   51.51    4.43
  -4  -6   3 1173.26   51.50
   4   6  -3 1138.75   50.92
   4  -6  -3 1187.80   52.99
  -4  -6   2  501.64   22.53
   4  -6  -2  490.61   24.71
   4   6  -2  474.83   21.99
   4  -6  -2  492.20   24.17
   4  -6  -1  407.71   20.68
   4  -6  -1  409.76   21.32
  -4  -6   1  405.81   19.18
   4  -6   0  171.21   11.36
   4  -6   0  192.07   11.11
  -4  -6   0  182.06    9.88
   4  -6   1 1601.15   71.50
  -4  -6  -1 1569.22   69.73
   4  -6   2   72.89    6.71
   4  -6   3   67.78    6.56
  -4   6  -4  254.48   15.11
   4  -6   4  235.63   15.03
   4  -6   4  242.50   15.03
  -4   6  -5   12.04    3.31
   4  -6   5    6.53    3.31
   4  -6   5   10.68    3.43
   4   6   6  266.31   22.50
   4  -6   6  271.09   16.81
   4  -6   7   -0.85    3.77
   4  -6   7    0.64    1.61
   4   6   7   -2.76    4.99
   4   6   7   -1.29    4.99
   4  -6   7   -0.62    2.95
   4  -6   8   60.09    5.54
   4   6   8   48.14    9.53
   4  -6   8   55.87    8.04
   4   6   8   63.52   11.15
   4  -6   8   54.24    8.65
   4  -6   8   56.31    7.64
   4  -6   9  722.69   36.86
   4   6   9  780.57   46.28
   4  -6   9  800.88   44.10
   4  -6   9  852.12   41.98
   4   6   9  770.62   47.11
   4  -6   9  767.29   41.28
   4   6  10   72.52   12.76
   4  -6  10   77.10    9.75
   4  -6  10   92.50   10.92
   4   6  10   69.02   11.73
   4  -6  10   92.52   12.55
   4  -6  10   87.10    7.59
   4   6  11 1568.80   85.79
   4   6  11 1601.00   84.79
   4  -6  11 1635.71   84.28
   4  -6  11 1662.35   79.24
   4  -6  11 1671.16   75.18
   4   6  12  230.83   23.14
   4  -6  12  262.98   16.02
   4  -6  12  255.55   23.26
   4   6  12  260.70   23.29
   4  -6  12  244.94   18.56
   4  -6  13  271.99   19.92
   4   6  13  281.83   25.42
   4   6  13  254.75   23.56
   4  -6  13  263.52   23.91
   4  -6  13  277.20   17.40
   4   6  14    6.94    7.11
   4  -6  14    9.28    3.64
   4   6  14    4.72    6.45
   4  -6  14    7.33    6.49
   4  -6  14    4.88    4.62
   4  -6  15  192.59   15.61
   4  -6  15  149.03   12.09
   4  -6  15  135.19   15.98
   4   6  15  171.30   19.27
   4  -6  16   12.40    3.95
   4  -6  16   13.31    5.70
   4  -6  16    8.25    5.82
   4  -6  16    9.35    3.51
   4  -6  17  341.50   19.65
   4  -6  17  285.38   22.49
   4  -6  17  338.47   20.33
   4  -6  18   25.68    6.70
   4  -6  18   16.53    3.88
   4  -6  19   11.00    5.29
   4  -6  19    6.27    2.85
   4  -6  20    4.74    4.67
   4   6  20    4.00    5.89
   4  -6  21   12.22    5.08
   4   6  22  259.69   18.17
   4  -6  22  277.45   18.59
   4   6  23  339.89   20.43
   4  -6  23  317.09   20.12
   4  -6  24  390.98   22.46
   4   6  24  426.68   22.96
   4   6  25  170.48   11.21
  -4   8  27   34.82    3.90
  -4  -8  26  305.00   17.30
  -4   8  26  311.45   17.59
  -4  -8  25    0.54    3.18
  -4   8  25    2.87    3.13
  -4  -8  24  310.58   19.33
  -4  -8  23    1.46    3.38
   4  -8 -23    0.97    4.66
   4  -8 -22  109.84   14.28
  -4  -8  22  102.33   10.55
   4  -8 -21    6.82    7.36
  -4  -8  21    3.41    3.78
   4  -8 -20   48.62   12.71
  -4  -8  20   40.92    7.36
   4  -8 -19   -2.53   11.19
   4  -8 -18   57.73   16.61
  -4   8  18   99.92   14.50
   4  -8 -18   82.54   10.53
  -4   8  17   21.92    8.50
   4  -8 -17   24.78   13.42
   4  -8 -17   33.82    7.28
  -4   8  16    9.45    7.62
   4  -8 -16    3.09   12.32
   4  -8 -16   12.41    4.81
   4  -8 -15   -2.91   11.57
  -4  -8  15    2.64    4.42
   4  -8 -15   -0.91    3.71
  -4   8  15   -3.14    6.25
  -4   8  14   80.32   13.09
   4  -8 -14   80.97    9.36
  -4  -8  14   73.24    8.89
   4   8 -14   58.53    8.48
   4  -8 -14   75.72   16.80
   4   8 -13    3.42    6.81
  -4   8  13    9.02    6.65
   4  -8 -13   -4.60    9.43
  -4  -8  13    4.28    3.84
  -4   8  13    1.82    6.82
   4  -8 -13    7.21    4.10
   4   8 -13    9.24    4.37
  -4   8  12   33.31    8.79
  -4   8  12   30.60   10.43
   4   8 -12   44.22    7.64
   4  -8 -12   49.65    7.15
   4  -8 -12   60.64   13.49
   4   8 -12   47.55   11.57
  -4  -8  12   36.33    6.00
   4  -8 -11   12.52    7.74
  -4   8  11    9.63    6.39
  -4   8  11    5.30    6.84
   4   8 -11    7.57    7.09
  -4  -8  11   18.23    4.24
   4   8 -11   16.29    4.93
   4  -8 -11   12.06    4.03
  -4   8  10  172.75   17.64
   4   8 -10  205.66   22.66
   4  -8 -10  203.68   14.67
   4   8 -10  213.06   16.99
  -4   8  10  181.36   20.46
  -4   8   9   30.22    9.19
   4  -8  -9   12.79    3.86
   4   8  -9   14.87    5.19
   4  -8  -9   11.79    6.55
   4   8  -9   18.81    8.73
   4  -8  -8    6.87    5.15
   4  -8  -8   12.18    3.60
  -4   8   8    8.14    7.04
   4   8  -8   18.22    5.71
   4   8  -8   -1.83    6.38
   4  -8  -7    5.78    2.91
  -4   8   7   10.97    6.94
   4   8  -7    7.05    6.81
   4   8  -7    8.26    4.89
   4  -8  -6  158.11   11.72
   4   8  -6  159.43   18.82
   4   8  -6  150.78   14.60
  -4   8   6  184.78   18.51
   4   8  -5    8.39    5.36
   4  -8  -5    6.29    2.96
   4   8  -5   11.52    7.45
   4  -8  -5    4.22    2.80
  -4   8   5   -1.43    5.68
   4  -8  -4    1.77    3.17
   4   8  -4    8.02    7.26
  -4   8   4    2.69    5.03
   4  -8  -4    2.50    2.41
   4   8  -4    9.49    5.09
  -4   8   3   12.58    6.22
   4  -8  -3   13.92    3.43
   4   8  -3   22.14    5.96
   4  -8  -3   13.85    3.87
   4   8  -3    9.52    6.34
   4  -8  -2  158.34   11.67
  -4  -8   2  164.35   11.09
   4  -8  -2  162.13   10.98
   4   8  -2  147.86   17.34
   4  -8  -1   10.24    3.50
   4   8  -1   10.33    6.05
   4  -8  -1    8.89    2.95
  -4  -8   1    7.65    2.91
   4   8  -1   12.75    6.89
   4   8   0   35.97    8.70
   4  -8   0   37.30    5.49
   4   8   0   38.93    9.90
   4  -8   1    9.99    3.68
   4   8   1    4.60    5.92
   4   8   1   -1.65    5.98
   4   8   2  145.09   17.30
   4  -8   2  141.34   11.24
   4   8   2  131.00   16.99
   4   8   3    1.63    6.10
   4  -8   3   -0.64    3.21
  -4   8  -3   -1.45    3.21
   4   8   3   -1.75    6.10
  -4   8  -4  605.39   33.93
   4  -8   4  656.59   34.22
   4   8   4  673.87   43.93
   4   8   4  624.28   42.57
   4  -8   4  656.12   34.14
   4  -8   5   57.01    7.41
  -4  -8  -5   68.45    6.86
   4   8   5   58.07   12.21
   4  -8   6  783.02   42.16
  -4  -8  -6  822.31   40.85
   4   8   6  882.11   53.57
   4   8   6  834.60   52.04
   4   8   7    7.61    8.00
   4  -8   7    4.01    4.10
  -4  -8  -7    4.01    3.09
   4   8   7   -1.97    7.85
   4   8   8  715.86   48.22
  -4  -8  -8  677.43   37.66
   4   8   8  680.07   48.11
   4  -8   8  837.07   42.23
  -4  -8  -8  711.80   41.75
   4  -8   8  702.93   39.31
   4  -8   9   33.56    7.48
   4   8   9   34.53   11.66
  -4  -8  -9   27.00    5.94
  -4  -8  -9   19.36    7.36
   4  -8   9   31.53    7.03
   4  -8  10  116.67   13.23
  -4  -8 -10  101.98   13.98
   4   8  10  109.93   17.46
  -4  -8 -10  122.06   12.28
   4  -8  10  128.24   13.64
   4  -8  11    8.90    5.15
   4   8  11    2.10    7.30
  -4  -8 -11    5.24    6.96
   4   8  12  217.70   24.22
   4   8  12  276.34   27.11
   4  -8  12  234.33   19.25
   4   8  13   19.53   10.01
  -4  -8 -13   29.64    7.46
   4   8  13   12.38    9.16
   4  -8  13   13.06    5.90
   4   8  14   44.68   11.46
   4   8  14   44.03   11.85
   4  -8  14   37.19    7.76
  -4  -8 -14   28.21    7.55
   4   8  15   13.36    9.58
   4  -8  15    6.17    5.07
   4   8  16  923.41   54.45
   4  -8  16  831.60   45.96
   4   8  16  847.90   45.69
   4   8  17    9.86    7.61
   4  -8  17    4.65    4.76
   4   8  17    8.97    4.75
   4   8  18 1050.37   53.47
   4  -8  18 1014.03   53.41
   4   8  18 1161.52   61.01
   4  -8  19   31.36    6.20
   4   8  19   28.55    5.93
   4   8  19   44.68    9.76
   4   8  20   28.30    5.60
   4  -8  20   22.15    5.24
   4   8  21    8.33    3.69
   4  -8  21    3.53    3.32
   4   8  22  140.47   10.15
   4  -8  22  118.87    9.55
   4   8  23    2.53    2.13
  -4  10  23    4.61    2.33
  -4  10  22    3.42    2.79
   4 -10 -21   11.38    3.97
   4 -10 -21    3.17    3.52
   4 -10 -20  378.88   22.81
   4 -10 -20  347.95   25.75
   4 -10 -19    1.58    6.09
   4 -10 -18    2.05    8.16
   4 -10 -17   20.06   12.37
   4 -10 -16   11.45   12.36
   4 -10 -15   87.30   19.62
  -4  10  14    2.51    6.52
   4 -10 -14   -2.97   12.15
  -4 -10  14   -2.82    4.80
   4 -10 -13   91.21   10.50
   4 -10 -13   94.80   19.08
  -4 -10  13  100.36   10.92
  -4 -10  12    1.64    4.20
   4 -10 -12    5.10   11.01
   4 -10 -12    3.23    3.57
   4 -10 -12    0.86    3.91
  -4  10  11   30.35   10.36
   4 -10 -11   17.97    4.70
   4 -10 -11   14.47    5.18
   4 -10 -11   25.46   11.84
  -4 -10  11   11.00    4.66
   4 -10 -10  206.35   16.20
   4 -10 -10  254.73   26.38
   4  10 -10  243.25   19.10
   4  10 -10  242.90   24.17
  -4 -10  10  247.63   16.97
  -4  10  10  242.92   24.93
   4 -10 -10  229.94   17.16
   4  10  -9   30.03   10.32
  -4 -10   9   43.37    6.88
   4 -10  -9   24.02    5.99
   4  10  -9   30.77    7.27
   4 -10  -9   37.94    6.10
  -4  10   9   34.64   10.86
   4 -10  -9   28.98    9.97
  -4  10   8   36.12   11.54
   4 -10  -8   26.19    5.85
   4  10  -8   36.46    8.07
   4 -10  -8   35.16    5.87
   4  10  -8   30.18   11.85
   4 -10  -8   26.95   10.91
   4 -10  -7    9.70    4.23
   4  10  -7    8.98    5.83
  -4  10   7   11.68    7.99
   4 -10  -7   21.99    8.65
   4  10  -7   20.22    9.22
   4  10  -6   52.43   10.14
  -4  10   6   92.57   14.92
   4 -10  -6   72.72    8.70
   4  10  -6   71.18   14.99
   4  10  -5    6.95    6.29
   4  10  -5   -2.31    7.04
  -4  10   5    1.73    6.88
   4 -10  -5    3.16    3.58
   4  10  -4   43.44   12.96
   4 -10  -4   43.04    6.93
   4  10  -4   33.93    8.33
  -4  10   4   26.93    8.65
   4 -10  -3   79.96    8.97
   4  10  -3   74.18   11.67
   4  10  -3   49.59   13.40
   4  10  -2  375.12   33.75
   4  10  -2  391.42   28.83
   4 -10  -2  399.93   24.20
   4  10  -1  347.49   31.62
   4  10  -1  333.38   30.09
   4 -10  -1  337.85   21.64
   4  10  -1  359.87   26.97
  -4 -10   0  116.65   10.62
   4  10   0  143.14   18.51
   4  10   0  163.57   21.01
   4 -10   0  164.76   12.96
   4  10   0  132.55   15.45
   4  10   1  110.88   17.95
   4  10   1   94.48   15.53
  -4  10  -1  123.60   13.08
   4 -10   1  123.40   11.56
  -4 -10  -1  107.77    9.99
   4  10   2   15.60    8.22
   4 -10   2   16.14    5.14
   4 -10   2   16.52    5.08
  -4 -10  -2   12.13    4.06
   4  10   2   10.93    8.98
   4 -10   3    1.65    3.73
   4 -10   3   -0.86    3.78
  -4 -10  -3    4.26    3.06
   4  10   3   15.43   10.42
   4  10   3    9.85    8.91
   4  10   4  113.54   18.01
   4 -10   4  153.93   13.14
   4  10   4  147.59   20.45
   4  10   5   22.11   10.27
   4  10   5   11.36    9.05
   4 -10   5    7.89    4.66
   4  10   6  427.08   35.10
   4  10   6  356.02   31.53
   4 -10   6  344.28   23.59
   4 -10   7  136.69   13.46
  -4 -10  -7  131.03   15.09
   4  10   7  150.63   20.84
   4  10   7  141.78   19.04
   4 -10   8  252.01   20.27
   4  10   8  271.95   27.04
   4  10   8  301.97   29.69
  -4 -10  -8  306.02   24.02
   4 -10   9  431.04   28.91
   4  10   9  432.97   37.36
   4  10   9  468.90   36.29
  -4 -10  -9  451.74   31.90
  -4 -10 -10   82.47   14.14
   4 -10  10  134.41   14.43
   4  10  10  135.01   19.08
   4  10  10  130.00   17.86
   4  10  11  327.89   28.77
   4  10  11  321.92   20.89
  -4 -10 -11  339.07   28.78
   4  10  11  319.84   30.35
   4  10  12  456.57   26.20
   4  10  12  494.52   35.22
   4  10  13  177.41   19.51
   4  10  13  149.96   12.57
   4  10  14   -3.08    8.28
   4  10  14    1.99    3.20
   4  10  15   -2.79    6.86
   4 -10  15   -0.61    2.90
   4  10  15   -1.84    3.30
   4  10  16   45.45    6.18
   4  10  16   71.82   11.10
   4  10  17   91.38   11.65
   4  10  17   68.50    7.08
   4  10  18   79.82    6.96
   4  10  19   18.60    2.79
   4 -12 -17   90.69   11.82
   4 -12 -16   27.90    9.57
   4 -12 -16   36.03    6.11
   4 -12 -15   41.22    6.72
   4 -12 -15   53.07   13.77
   4 -12 -14   11.65    4.65
   4 -12 -14    9.82   11.12
   4 -12 -13  162.60   13.80
   4 -12 -13  226.84   28.17
   4 -12 -12    2.43    3.21
  -4 -12  12    1.82    4.48
   4 -12 -12    2.74   12.98
   4 -12 -12    1.60    3.46
   4 -12 -11   10.48    4.38
  -4 -12  11   19.45    5.97
   4 -12 -10    9.71    4.43
  -4 -12  10    9.59    4.64
   4 -12 -10   -4.94   11.67
   4 -12  -9   82.61    9.64
   4 -12  -9   75.32   16.14
  -4 -12   9   90.19    9.57
   4 -12  -8   25.08    5.51
   4 -12  -8    6.34    8.19
  -4 -12   8   15.15    4.68
   4 -12  -7   11.84    8.95
  -4 -12   7   15.12    5.34
   4 -12  -7   12.95    4.45
   4  12  -7    7.68    6.48
   4 -12  -6   63.16   13.64
  -4 -12   6   54.25    7.69
   4 -12  -6   62.38    8.22
   4  12  -6   49.91   11.79
   4  12  -5   -1.99    7.68
   4 -12  -5    3.24    4.14
   4 -12  -5    0.76    3.46
   4 -12  -4   16.17    4.91
   4 -12  -4   12.16    4.99
   4  12  -4   17.20   10.19
   4  12  -3    6.79    9.27
   4 -12  -3    4.07    3.61
   4 -12  -3    4.66    3.83
   4 -12  -2   -0.79    4.02
   4 -12  -2   -1.61    7.10
   4 -12  -2   -0.82    3.62
   4  12  -2    9.30    9.78
   4  12  -1  250.46   27.16
   4 -12  -1  256.71   17.93
   4 -12  -1  226.67   17.07
   4  12   0   41.84   13.39
   4  12   1   11.43    9.63
   4  12   2   44.68   12.15
   4 -12   3   46.48    7.81
   4  12   3   60.90   14.24
   4 -12   4   13.59    5.48
  -4 -12  -4    4.06    5.71
   4  12   4   16.87    9.34
   4 -12   5  135.11   12.89
  -4 -12  -5  113.32   14.13
   4  12   5  102.05   17.25
   4  12   6    4.35    6.10
  -4 -12  -6    4.01    6.33
   4 -12   6    2.93    4.11
  -4 -12  -6    1.64    3.63
   4  12   6    5.88    9.07
   4  12   7    7.47    8.08
   4  12   7   11.04    6.94
   4 -12   7   14.19    5.81
  -4 -12  -7    5.48    6.90
  -4 -12  -7   18.33    6.08
  -4 -12  -8   22.81    7.95
   4  12   8   24.68    9.66
  -4 -12  -8   22.49    6.75
   4  12   8   15.48    6.87
   4  12   9  218.77   18.88
   4  12   9  206.46   21.00
  -4 -12  -9  196.65   19.98
  -4 -12  -9  190.46   17.63
  -4 -12 -10  121.18   15.40
   4  12  10  131.39   14.08
  -4 -12 -10  136.02   14.64
   4  12  10  115.35   15.42
   4  12  11  411.49   27.29
  -4 -12 -11  471.75   30.15
   4  12  12   12.51    5.24
   4  12  13  358.40   22.28
   4 -14 -10    2.93   12.65
   4 -14  -9   -3.34   14.05
   4 -14  -8    3.30   15.59
   4 -14  -7   32.95   16.41
  -4 -14   4   11.13    7.84
  -4 -14   3    7.55    7.15
   4 -14  -3   12.23    9.09
   4 -14  -2   -1.53    7.09
  -4 -14   2   -4.28    6.47
  -4 -14   1    1.35    6.26
   4 -14  -1   13.44    6.87
  -4 -14   0   -1.29    6.21
   4 -14   0    4.69    5.55
   4  14   1   45.16    8.50
   4 -14   1   52.95    8.83
  -4 -14  -1   53.13   10.06
   4 -14   2   32.34    6.78
  -4 -14  -2   29.97    8.37
   4 -14   3   80.51    9.35
  -4 -14  -3  114.47   13.51
   4 -14   4  104.53    9.85
  -4 -14  -4  143.43   14.74
  -4 -14  -5   86.97   11.54
  -5  -1  30    0.72    1.10
  -5   1  30    7.11    2.86
  -5   1  29   68.43    7.23
  -5  -1  29   53.65    6.51
  -5   1  28   53.02    7.28
  -5  -1  28   49.72    6.75
  -5   1  27   23.57    5.25
  -5   1  26  262.05   18.28
  -5   1  26  267.23   17.20
  -5   1  25   87.52    9.91
  -5   1  25   92.09   10.01
   5  -1 -24   63.38   10.46
  -5   1  24   90.61    9.82
  -5   1  24   73.60    9.09
  -5   1  24   66.34    9.00
   5  -1 -24   60.12    7.53
  -5   1  23    0.80    3.72
  -5   1  23   -2.58    4.16
   5  -1 -23   10.98    6.49
  -5   1  22   37.61    6.45
   5  -1 -22   37.48    6.02
   5  -1 -22   34.20    9.41
  -5  -1  22   29.00    5.74
  -5  -1  21   10.36    4.04
   5  -1 -21   12.65    7.34
   5   1 -21    4.34    5.61
  -5   1  21   14.99    4.49
  -5   1  21   18.53    4.25
  -5   1  20   10.59    3.86
   5   1 -20    7.51    6.49
  -5  -1  20   -1.30    3.15
   5  -1 -20    3.31    6.58
  -5   1  20    9.28    3.32
  -5   1  19   29.58    5.19
  -5  -1  19   16.47    4.38
   5  -1 -19   20.43    8.58
   5   1 -19   19.99    7.77
  -5   1  19   21.09    4.24
  -5  -1  18   92.90    8.59
  -5   1  18   95.50    8.28
   5   1 -18  101.43   14.58
  -5   1  18  113.55    9.48
   5  -1 -18   91.60   15.41
   5  -1 -17   34.73   10.98
  -5  -1  17   37.64    5.25
   5   1 -17   39.27    9.84
  -5   1  17   41.33    5.01
  -5   1  17   31.35    5.12
   5   1 -17   42.34    6.12
  -5  -1  16    1.91    2.53
   5   1 -16   -2.53    3.11
  -5   1  16    1.26    2.18
  -5   1  16    7.96    2.67
   5   1 -15  371.79   21.77
  -5   1  15  376.62   20.52
  -5   1  15  379.18   19.90
  -5  -1  15  377.79   20.41
  -5  -1  14   38.52    4.64
  -5   1  14   44.62    4.46
  -5   1  14   34.16    4.62
   5   1 -14   37.72    5.60
   5   1 -13  147.53   11.02
   5  -1 -12    1.59    3.08
   5   1 -12    6.08    3.25
   5  -1 -11   76.51    7.60
   5   1 -11   80.93    7.50
   5  -1 -10  203.98   13.21
   5   1 -10  179.03   12.38
   5   1  -9  607.19   31.56
   5  -1  -9  673.46   32.60
   5   1  -8  118.24    9.30
   5  -1  -8  124.14    7.13
   5  -1  -8  140.91   10.39
   5   1  -7   85.98    7.45
   5  -1  -7   87.71    5.21
   5   1  -7   78.12    4.38
   5  -1  -7   88.11    8.22
   5  -1  -6   15.08    2.23
   5  -1  -6   14.55    2.05
   5   1  -6   18.29    4.44
   5   1  -6   16.88    1.55
   5   1  -5  199.63    9.30
   5  -1  -5  203.72   10.08
   5   1  -5  184.88   11.97
   5  -1  -5  209.18   10.08
   5  -1  -4  418.46   20.71
   5  -1  -4  359.67   17.26
   5  -1  -3   43.12    5.14
   5  -1  -2 1153.32   51.65
   5   1  -2 1177.26   52.04
   5  -1  -1  101.78    6.18
   5  -1  -1  125.55    6.74
   5   1  -1  123.42    7.28
   5   1  -1  117.10    6.47
   5   1  -1  118.28    6.88
   5   1   0  762.99   34.77
   5   1   0  770.43   34.32
   5   1   1  302.82   14.95
   5   1   2    2.29    1.94
   5   1   3   15.70    2.62
   5   1   4 1195.63   53.59
   5   1   5 1027.22   46.84
   5   1   6  384.89   19.83
   5   1   7   28.08    4.15
   5  -1   7   28.49    4.10
   5   1   7   23.48    3.89
   5   1   8  174.88   10.97
   5   1   8  147.58   10.34
   5   1   9    9.44    3.19
   5   1   9   20.43    3.76
   5   1  10  900.16   43.75
   5   1  10  921.06   43.91
   5   1  11  396.79   21.83
   5   1  11  378.48   21.62
   5   1  12  514.92   29.04
   5   1  12  519.40   27.70
   5   1  12  517.38   27.58
   5  -1  12  500.00   28.31
   5   1  13  199.12   14.42
   5   1  13  214.77   14.60
   5   1  13  236.16   19.99
   5  -1  13  206.35   15.40
   5   1  13  230.00   16.23
   5  -1  13  201.43   15.88
   5   1  14   70.12    7.97
   5   1  14   83.83   11.83
   5   1  14   67.82    9.03
   5   1  14   67.29    7.85
   5  -1  14   73.55    9.04
   5   1  14   69.34    8.04
   5  -1  14   75.48    8.64
   5   1  15   57.26    8.40
   5   1  15   56.85    7.76
   5   1  15   57.32   10.30
   5  -1  15   73.68    9.26
   5  -1  15   57.72    8.02
   5   1  15   60.05    7.59
   5   1  15   61.15    7.70
   5   1  16  815.74   42.27
   5   1  16  905.71   48.67
   5  -1  16  805.16   43.06
   5   1  16  813.92   42.31
   5   1  16  781.66   43.71
   5  -1  16  815.75   43.86
   5   1  16  785.47   41.78
   5  -1  17    2.86    3.91
   5   1  17    4.73    3.73
   5   1  17    7.08    4.09
   5   1  17    5.97    4.70
   5  -1  17    1.80    3.98
   5   1  17    2.68    6.07
   5   1  17    3.08    3.79
   5  -1  18 1104.36   56.91
   5  -1  18 1157.33   57.78
   5   1  18 1142.55   56.12
   5   1  18 1114.74   58.00
   5   1  18 1068.11   55.26
   5   1  18 1142.76   56.37
   5   1  19   84.42    9.89
   5  -1  19   85.05   10.10
   5   1  19   79.33   10.61
   5   1  19   77.06    9.52
   5  -1  19   82.65   10.27
   5   1  19   76.78    8.98
   5  -1  20   63.51    8.76
   5   1  20   61.55    8.40
   5  -1  20   61.09    8.76
   5   1  20   60.75    7.97
   5   1  20   67.15    8.58
   5   1  20   70.54    9.90
   5  -1  21  314.02   21.63
   5   1  21  332.45   21.61
   5   1  21  325.38   22.43
   5   1  21  310.00   20.02
   5  -1  21  346.66   22.18
   5   1  22  138.00   11.98
   5   1  22  119.35   12.27
   5  -1  22  121.19   11.68
   5  -1  22  127.76   12.07
   5  -1  23   36.86    6.51
   5  -1  23   43.83    6.62
   5   1  23   56.99    7.36
   5   1  23   43.44    7.04
   5   1  24  159.78   12.18
   5  -1  24  139.78   11.42
   5   1  24  161.24   11.62
   5  -1  24  147.02   11.30
   5   1  24  147.72   12.13
   5   1  25   64.76    6.46
   5   1  25   79.37    6.65
   5  -1  25   64.93    6.18
   5   1  26   29.73    4.18
   5   1  26   38.84    4.70
  -5  -3  30   16.95    3.58
  -5   3  29    3.78    2.51
  -5  -3  29    5.02    2.82
  -5   3  29    5.51    2.88
  -5  -3  29    3.42    3.11
  -5   3  28    0.55    2.89
  -5  -3  28    5.39    3.16
  -5  -3  28   -0.68    3.26
  -5   3  28    2.31    3.01
  -5  -3  27   66.64    7.76
  -5   3  27   95.04    8.88
  -5   3  27   87.55    9.23
  -5  -3  26    0.67    3.30
   5  -3 -26    2.94    4.23
  -5   3  26    4.82    3.76
  -5   3  26    8.15    4.52
  -5  -3  25   21.39    5.18
   5  -3 -25   34.87    8.17
  -5   3  25   28.59    5.64
  -5   3  24    8.93    3.86
   5  -3 -24    8.00    4.04
  -5  -3  24   11.08    4.47
   5  -3 -24   11.94    6.91
  -5  -3  24   12.75    4.37
  -5   3  24   12.15    5.10
  -5  -3  23  220.99   17.11
   5  -3 -23  233.61   21.94
  -5   3  23  215.25   17.08
  -5   3  23  291.68   18.29
   5  -3 -23  224.16   17.27
  -5  -3  23  275.74   17.74
  -5  -3  22   56.40    7.61
  -5   3  22   43.53    7.17
  -5  -3  22   35.02    6.51
   5  -3 -22   37.26    6.62
  -5   3  22   42.31    6.89
  -5  -3  22   56.89    7.66
   5  -3 -22   61.53   11.64
  -5   3  21  231.36   15.82
  -5  -3  21  190.80   14.68
  -5  -3  21  198.85   15.09
   5  -3 -21  189.66   21.29
  -5  -3  20   79.25    8.15
  -5   3  20   64.46    7.80
  -5  -3  20   54.15    7.39
   5  -3 -20   41.60   11.25
   5   3 -20   56.78    7.41
  -5  -3  19   98.33    9.47
  -5   3  19   87.96    8.86
  -5  -3  19  108.22    9.45
   5   3 -19   70.60    8.62
   5  -3 -19   89.50   15.80
   5  -3 -18   26.18   11.16
  -5  -3  18   10.40    4.18
  -5  -3  18   14.08    3.95
  -5   3  18   16.11    4.27
   5   3 -18   14.62    4.34
   5  -3 -17  103.09   18.18
  -5   3  17   78.83    6.78
   5   3 -17   84.01    8.80
  -5  -3  17   85.70    8.07
  -5   3  17   96.84    8.50
  -5  -3  17   94.13    8.47
  -5   3  16   38.36    5.34
  -5   3  16   34.82    4.29
  -5  -3  16   42.40    5.57
   5  -3 -16   38.45    4.62
  -5   3  16   34.45    7.94
  -5  -3  16   57.60    6.09
   5  -3 -16   42.35   13.27
   5   3 -16   33.68    5.94
   5   3 -15  109.93    9.81
  -5  -3  15  111.74    8.98
  -5   3  15  114.02    7.70
   5  -3 -15  113.61   19.88
  -5  -3  15  122.93    8.97
   5  -3 -15   99.24    7.65
  -5   3  15  108.08   12.51
  -5   3  15  122.75    8.98
  -5   3  14  163.18    9.63
   5   3 -14  167.82   12.19
  -5   3  14  168.09   10.89
   5  -3 -14  148.96    9.60
  -5  -3  14  165.58   10.86
  -5  -3  13  484.51   24.06
   5  -3 -13  458.96   22.83
  -5   3  13  488.29   24.09
  -5   3  13  482.27   22.81
   5   3 -13  443.58   25.50
  -5   3  12  135.33    8.03
  -5  -3  12  133.19    8.99
  -5   3  12  141.35    9.09
   5  -3 -12  137.81    8.21
   5   3 -12  143.73   10.81
   5  -3 -11  118.50    7.07
   5   3 -11  107.81    9.35
   5   3 -10   19.11    4.33
   5  -3 -10   17.97    2.38
   5  -3  -9  233.05   11.76
   5   3  -9  218.94   14.39
   5  -3  -8   29.18    3.43
   5  -3  -8   28.06    2.80
   5   3  -8   33.91    5.13
   5   3  -7 1453.26   66.28
   5  -3  -7 1432.49   63.73
   5   3  -6  337.56   18.91
   5  -3  -6  325.65   16.52
   5   3  -5  620.01   30.49
   5  -3  -5  603.17   28.20
   5   3  -4  843.13   41.99
   5  -3  -4  918.59   40.20
   5  -3  -3  658.26   29.78
   5   3  -3  642.26   28.97
   5   3  -2  409.59   18.57
   5  -3  -2  369.03   18.30
   5  -3  -2  377.85   18.60
   5   3  -2  389.73   17.78
   5   3  -1 1175.59   51.00
   5  -3  -1 1153.04   50.77
   5  -3  -1 1107.92   50.72
   5   3  -1 1140.70   49.73
   5   3   0 1253.74   55.93
   5  -3   0 1255.14   56.71
   5  -3   0 1328.97   56.07
   5   3   1   19.40    2.38
   5  -3   1   16.75    2.36
   5   3   2    4.63    1.73
   5  -3   2    1.71    1.42
  -5   3  -3 1698.66   74.39
   5  -3   3 1699.54   75.57
   5   3   3 1794.31   75.70
  -5   3  -4  159.08    7.98
   5  -3   4  170.66    9.68
   5   3   4  157.67    9.46
   5  -3   5  484.39   24.50
   5   3   5  438.88   22.46
   5  -3   5  460.65   22.76
   5  -3   6   16.15    3.28
   5  -3   6   10.78    4.06
   5   3   6   23.84    3.36
   5   3   7  147.99   10.02
   5  -3   7  170.42   10.59
   5  -3   7  156.60   10.15
   5   3   7  142.34    9.82
   5   3   8   74.94    6.51
   5   3   8   69.86    6.58
   5  -3   8   77.75    6.97
   5  -3   8   78.86    6.80
   5  -3   9 1211.88   58.61
   5   3   9 1293.59   58.82
   5   3   9 1276.84   58.72
   5  -3   9 1300.18   58.88
   5   3  10  942.96   44.65
   5  -3  10  924.06   44.47
   5   3  10  920.11   44.58
   5  -3  10  927.70   44.65
   5  -3  11 2031.02   91.10
   5   3  11 2024.01   98.84
   5   3  11 2061.11   91.36
   5  -3  11 1987.51   91.11
   5   3  11 1986.09   91.20
   5  -3  12   26.60    4.90
   5   3  12   49.78    6.40
   5   3  12   48.32    9.26
   5  -3  12   36.78    5.69
   5   3  12   41.16    5.74
   5  -3  12   42.10    7.18
   5   3  13  738.33   37.16
   5  -3  13  702.60   36.61
   5  -3  13  689.91   36.36
   5   3  13  730.91   44.31
   5   3  13  729.80   36.96
   5  -3  13  746.78   39.88
   5   3  14   37.30    6.24
   5   3  14   34.50    5.71
   5  -3  14   45.80    6.06
   5  -3  14   24.52    5.97
   5   3  14   30.93    8.98
   5  -3  14   23.99    4.99
   5  -3  15   32.24    5.67
   5  -3  15   30.42    6.62
   5   3  15   28.29    5.26
   5   3  15   20.85    5.12
   5  -3  15   31.80    6.75
   5   3  15   34.75    9.39
   5   3  15   23.91    6.07
   5  -3  15   12.61    4.03
   5   3  16  235.07   16.94
   5  -3  16  247.05   17.05
   5   3  16  276.97   17.72
   5   3  16  264.81   23.29
   5   3  16  267.15   19.66
   5  -3  16  226.07   16.46
   5  -3  16  274.17   19.41
   5  -3  16  245.17   19.00
   5   3  17  226.66   17.96
   5  -3  17  193.80   15.15
   5  -3  17  211.28   15.39
   5  -3  17  234.71   17.48
   5  -3  17  238.18   18.07
   5   3  17  199.68   15.30
   5   3  17  201.18   15.40
   5   3  17  204.65   20.56
   5  -3  18  165.98   13.93
   5   3  18  181.63   14.13
   5  -3  18  163.07   15.50
   5   3  18  187.03   19.28
   5   3  18  163.54   13.67
   5  -3  18  215.16   15.94
   5  -3  18  160.03   13.51
   5   3  18  166.13   15.54
   5   3  19    2.86    5.54
   5   3  19   15.84    5.32
   5   3  19   14.50    4.63
   5  -3  19   15.14    4.82
   5  -3  19   12.66    4.85
   5   3  19   14.79    5.80
   5  -3  19   10.36    5.68
   5  -3  19   17.30    5.34
   5  -3  20    1.54    3.24
   5  -3  20   -0.77    3.66
   5   3  20   -4.11    5.16
   5  -3  20   -1.01    4.79
   5   3  20   -0.77    3.58
   5   3  21  162.50   15.09
   5  -3  21  171.70   13.62
   5  -3  21  159.49   13.94
   5   3  21  178.79   13.72
   5  -3  21  189.11   15.44
   5  -3  22   30.15    5.83
   5  -3  22   21.41    5.08
   5   3  22   19.15    4.97
   5   3  22   17.83    6.20
   5  -3  22    9.67    4.95
   5   3  22   22.35    4.88
   5  -3  23  709.28   38.18
   5  -3  23  782.07   38.96
   5   3  23  795.32   40.82
   5   3  23  732.01   37.83
   5   3  23  814.73   39.23
   5  -3  23  749.65   38.00
   5  -3  23  807.76   40.71
   5  -3  24  160.72   12.79
   5   3  24  187.78   13.74
   5   3  24  197.73   12.22
   5  -3  24  158.18   11.52
   5   3  25  230.70   13.87
   5  -3  25  233.52   14.97
   5   3  25  239.15   15.31
   5  -3  25  253.04   14.12
   5   3  26    2.02    2.37
  -5  -5  30    8.44    2.38
  -5   5  29   14.60    3.16
  -5   5  28   37.44    5.45
  -5  -5  27   57.35    6.01
  -5   5  27   73.69    8.22
  -5   5  26    7.98    4.57
  -5  -5  26    8.50    3.29
  -5  -5  25   43.44    6.04
  -5   5  25   47.68    6.24
   5  -5 -25   52.89    9.10
  -5  -5  24  149.97   12.05
   5  -5 -24  158.41   17.07
  -5   5  24  162.60   12.16
   5  -5 -23   -3.17    6.30
  -5  -5  23   -1.29    3.05
  -5   5  23    1.84    3.29
  -5  -5  22   20.46    4.98
  -5   5  22   24.60    4.88
   5  -5 -22   28.60    6.54
   5  -5 -22   21.48    9.19
  -5  -5  22   15.64    4.69
  -5   5  21    8.87    4.07
  -5  -5  21    6.60    3.94
   5  -5 -21    9.98    8.18
  -5  -5  21    6.41    3.38
   5  -5 -21    4.69    4.06
   5  -5 -20  115.04   19.11
  -5  -5  20  106.98   10.09
  -5  -5  20  110.16   10.60
   5  -5 -20   88.99   10.99
  -5   5  20   98.27    9.49
  -5  -5  20  100.66    9.67
  -5   5  19   15.33    3.88
  -5  -5  19   15.05    4.79
  -5  -5  19    7.44    3.49
   5  -5 -19   11.90    5.18
   5  -5 -19   14.65   12.03
  -5  -5  19   10.69    4.01
  -5   5  19   12.77    3.88
  -5   5  18    2.68    5.17
  -5  -5  18    4.30    3.18
  -5   5  18    5.81    3.42
  -5  -5  18    8.98    3.84
   5  -5 -18    7.95    9.91
  -5   5  18    2.44    2.89
   5   5 -18    3.86    3.16
  -5   5  17   24.22    7.17
  -5  -5  17   24.80    4.80
   5   5 -17   32.24    5.86
   5  -5 -17   11.18   10.85
  -5   5  17   30.73    5.08
  -5  -5  17   32.57    5.72
  -5  -5  16   28.83    4.65
  -5   5  16   16.88    6.48
  -5  -5  16   36.29    5.55
   5  -5 -16   13.96   10.85
   5   5 -16   24.11    5.28
  -5   5  16   32.24    4.76
   5   5 -15   16.93    4.53
   5  -5 -15   10.50   10.76
  -5  -5  15   10.68    3.62
  -5   5  15    9.92    3.18
  -5   5  15   23.84    6.95
   5  -5 -15   13.74    4.44
  -5  -5  15   16.42    3.91
   5  -5 -14    4.62    9.19
  -5  -5  14    1.32    2.37
  -5   5  14    2.13    4.23
  -5  -5  14   -2.20    2.66
   5  -5 -14   -0.62    2.68
  -5   5  14    1.73    2.09
   5   5 -14    2.89    3.62
  -5  -5  13   64.53    6.42
  -5   5  13   55.52    8.59
  -5  -5  13   51.58    5.52
   5  -5 -13   61.57    6.85
   5  -5 -13   56.48   12.85
   5   5 -13   61.96    7.59
  -5  -5  12   -0.93    2.34
  -5  -5  12    1.44    2.11
   5  -5 -12    0.51    2.45
  -5   5  12    3.42    4.80
   5  -5 -12    1.61    5.59
   5   5 -12    3.52    3.12
   5   5 -11  635.08   34.18
  -5  -5  11  633.31   30.89
  -5  -5  11  665.66   31.73
  -5  -5  11  640.45   30.48
   5  -5 -11  613.43   31.85
   5   5 -10  177.97   13.42
   5  -5 -10  156.60   11.20
  -5  -5  10  185.19   11.24
  -5  -5   9 1275.17   57.72
   5  -5  -9 1247.89   58.12
   5   5  -9 1306.96   61.62
   5  -5  -8    9.05    2.83
   5   5  -8    3.48    3.51
   5  -5  -7 1683.27   76.54
   5   5  -7 1778.99   80.28
   5  -5  -6  207.50   12.30
   5   5  -6  217.10   15.15
   5   5  -5  768.48   40.74
   5   5  -5  815.58   36.06
   5  -5  -5  800.23   36.11
   5  -5  -5  817.34   37.76
   5   5  -4  420.49   19.77
   5   5  -4  411.52   19.80
   5   5  -4  457.39   24.32
   5  -5  -4  443.32   21.32
   5  -5  -4  410.51   19.76
   5  -5  -3   31.49    3.65
   5   5  -3   30.14    2.73
  -5  -5   2    1.95    0.90
   5  -5  -2    3.63    1.96
   5  -5  -2    4.47    2.19
   5   5  -2    2.82    1.10
   5  -5  -1   18.84    3.42
   5  -5  -1   30.16    3.51
   5  -5   0  240.07   12.84
   5  -5   0  213.14   12.90
   5  -5   1  224.44   13.21
   5  -5   2   46.17    3.56
   5   5   2   43.27    3.48
   5  -5   2   36.49    4.67
   5  -5   3 1529.72   66.45
   5  -5   3 1467.48   66.68
   5  -5   3 1466.87   64.23
   5   5   3 1415.04   63.92
   5  -5   4   92.03    7.89
   5  -5   4  102.40    8.49
   5   5   4   94.33    6.43
  -5   5  -4   92.66    7.16
   5   5   5 1697.88   77.94
   5  -5   5 1793.33   78.43
   5  -5   5 1891.02   80.90
   5  -5   6  102.08    7.23
   5   5   6   86.59    6.67
   5  -5   6   91.91    8.68
   5   5   7  596.01   29.36
   5  -5   7  632.59   32.79
   5  -5   7  587.80   30.17
   5  -5   7  612.59   29.87
   5  -5   8   51.77    5.59
   5  -5   8   52.80    9.35
   5  -5   8   50.46    6.01
   5   5   8   46.05    5.27
   5   5   8   51.23    9.24
   5  -5   8   34.64    6.83
   5   5   8   44.46    8.27
   5  -5   8   45.78    6.80
   5  -5   9   67.24    8.41
   5  -5   9   59.35    6.72
   5   5   9   49.42    9.02
   5   5   9   48.73   10.01
   5   5   9   64.15    6.42
   5  -5   9   64.15    9.24
   5  -5   9   42.73    9.81
   5  -5   9   67.54    6.59
   5   5  10  269.06   16.36
   5  -5  10  308.30   17.77
   5   5  10  279.62   16.83
   5  -5  10  225.68   22.63
   5   5  10  220.71   20.65
   5  -5  10  313.11   17.46
   5  -5  10  246.76   18.40
   5   5  11  890.56   52.64
   5  -5  11  990.57   47.04
   5   5  11  976.69   46.39
   5  -5  11  991.21   46.54
   5  -5  11  891.45   48.30
   5   5  11  951.46   45.85
   5  -5  11  813.37   54.41
   5   5  12   22.06    7.81
   5   5  12   23.89    5.02
   5  -5  12   22.03    4.39
   5  -5  12   17.09    8.29
   5  -5  12   17.61    4.87
   5  -5  12   20.56    5.49
   5   5  12   19.12    4.12
   5  -5  13  170.15   13.12
   5  -5  13  166.52   12.67
   5   5  13  192.65   13.50
   5  -5  13  181.76   19.65
   5   5  13  156.37   17.58
   5   5  13  149.08   12.03
   5  -5  13  177.55   14.77
   5   5  14   17.55    7.71
   5  -5  14   11.13    3.81
   5  -5  14    5.54    3.80
   5   5  14    8.65    5.75
   5   5  14   12.03    4.10
   5   5  14    9.54    3.39
   5  -5  14    6.35    6.87
   5  -5  14   11.26    4.55
   5   5  15  194.23   14.25
   5  -5  15  190.55   14.51
   5   5  15  171.89   19.42
   5  -5  15  207.49   19.98
   5  -5  15  193.63   14.24
   5   5  15  204.11   14.61
   5  -5  15  218.35   17.19
   5   5  16  396.36   23.09
   5  -5  16  410.59   23.53
   5   5  16  347.11   28.95
   5  -5  16  381.45   22.76
   5  -5  16  350.63   24.90
   5  -5  16  384.31   27.65
   5   5  17  947.47   46.75
   5   5  17  954.33   54.82
   5  -5  17  888.34   46.24
   5  -5  17 1011.98   51.88
   5  -5  17  945.05   50.11
   5  -5  17  939.85   46.97
   5   5  17  908.91   45.74
   5   5  18   99.78    9.24
   5  -5  18   96.23    9.45
   5  -5  18  104.31    9.98
   5   5  18   88.62    9.46
   5  -5  18   91.61   11.10
   5   5  18  117.08   15.32
   5  -5  18  125.72   13.03
   5  -5  19  241.60   15.95
   5   5  19  274.30   22.82
   5   5  19  240.62   15.69
   5  -5  19  274.28   17.25
   5  -5  19  219.61   17.57
   5  -5  19  264.10   19.64
   5   5  20   26.94    8.17
   5   5  20   20.35    6.12
   5  -5  20   21.13    4.37
   5   5  20   20.92    4.18
   5  -5  20   15.86    4.80
   5  -5  20   25.32    6.77
   5  -5  21   51.81    6.01
   5   5  21   46.47    8.00
   5  -5  22    1.27    2.35
   5   5  22    5.60    4.30
   5  -5  23  116.35    8.54
   5   5  23  150.84   11.77
   5  -5  24   70.48    7.34
   5   5  24   70.33    7.50
   5  -5  25   30.09    4.41
   5   5  25   38.80    4.92
   5   5  26   18.66    2.84
  -5  -7  28    4.61    2.42
  -5   7  28    7.25    2.53
  -5   7  27   14.48    3.65
  -5  -7  27   22.32    4.14
  -5   7  26   15.70    4.55
  -5  -7  26   17.78    4.37
   5  -7 -25    0.80    3.54
  -5  -7  25    5.64    4.35
  -5  -7  24    5.47    4.34
   5  -7 -24    7.87    5.95
   5  -7 -23   -1.44    5.89
   5  -7 -22    5.27    6.99
   5  -7 -21   74.92   14.69
   5  -7 -20  133.04   21.29
   5  -7 -20  153.35   14.85
   5  -7 -19   59.87    9.21
   5  -7 -19   84.94   18.34
   5  -7 -18   11.11    4.79
   5  -7 -18   -2.99   10.40
  -5   7  18   13.62    8.14
  -5   7  17    5.98    6.78
   5  -7 -17    9.24   12.62
   5  -7 -17   12.58    5.05
  -5  -7  16  149.84   12.50
  -5   7  16  140.41   16.77
   5   7 -16  185.65   21.74
   5   7 -16  157.20   13.83
   5  -7 -16  110.78   22.02
   5  -7 -16  165.90   14.12
   5   7 -15  109.11   16.74
  -5  -7  15   73.75    8.45
   5  -7 -15   90.78   18.76
   5  -7 -15   95.94   10.21
   5   7 -15  100.21   10.92
  -5   7  15   76.47   12.25
  -5  -7  14  135.97   11.60
  -5   7  14  150.77   16.37
   5  -7 -14  150.11   21.57
   5   7 -14  157.09   13.92
   5  -7 -14  158.09   13.03
   5   7 -14  143.92   20.61
  -5  -7  13   41.60    5.77
   5   7 -13   30.99    6.55
  -5   7  13   37.43    8.96
  -5  -7  13   34.54    5.37
   5  -7 -13   44.00   11.73
   5  -7 -13   48.80    6.83
   5   7 -13   43.80   12.96
  -5  -7  12  479.56   25.72
   5   7 -12  551.94   40.41
   5   7 -12  479.65   28.98
   5  -7 -12  465.30   26.86
  -5  -7  12  467.01   25.70
  -5   7  12  498.98   32.00
   5  -7 -12  506.18   36.83
  -5   7  12  424.80   32.35
  -5  -7  11   94.03    8.29
  -5   7  11   83.68   11.18
  -5  -7  11   96.57    8.48
   5   7 -11   93.05   15.75
  -5   7  11   69.30   11.74
   5  -7 -11  102.19   14.21
   5  -7 -11  101.21    9.02
   5   7 -11   93.03   10.54
  -5  -7  10  184.69   12.31
   5  -7 -10  197.27   13.42
   5  -7 -10  183.87   18.42
   5   7 -10  193.88   15.77
  -5   7  10  162.25   17.56
   5   7 -10  196.38   21.94
  -5  -7   9   -0.90    2.21
  -5   7   9    5.32    4.63
   5   7  -9    1.75    6.75
   5  -7  -9    2.26    2.78
   5   7  -9    6.49    4.38
   5  -7  -9   10.07    6.31
   5  -7  -8   24.74    4.35
  -5   7   8   10.15    5.53
   5  -7  -8   22.04    6.48
   5   7  -8   19.46    7.86
  -5  -7   8   15.73    3.29
   5   7  -8   19.54    5.52
  -5  -7   7    1.14    1.90
   5  -7  -7    2.56    2.61
   5   7  -7    1.51    5.66
   5   7  -7    3.69    4.28
  -5   7   7   -1.21    4.66
  -5  -7   6  189.41   11.81
   5   7  -6  187.91   19.19
   5  -7  -6  234.06   13.71
   5   7  -6  206.19   11.47
   5   7  -6  209.20   16.44
   5   7  -5   68.55    4.93
   5   7  -5   65.98   11.27
   5  -7  -5   68.05    6.55
   5   7  -5   84.85    9.57
  -5  -7   5   53.45    5.02
   5   7  -4  489.31   33.85
   5  -7  -4  528.98   27.06
   5  -7  -4  509.07   26.28
   5   7  -4  498.85   30.23
   5  -7  -3  301.20   17.50
   5   7  -3  289.44   23.68
   5  -7  -3  299.25   16.92
   5  -7  -2 3655.32  154.92
   5  -7  -2 3411.91  153.89
   5   7  -2 3555.29  164.09
   5   7  -1 1035.75   54.83
   5  -7  -1  911.56   45.45
   5  -7  -1  957.46   44.79
   5   7   0 1522.56   81.46
   5   7   0 1640.84   82.36
   5  -7   0 1599.91   72.93
   5   7   1   98.31   13.75
   5   7   1  111.53   14.38
   5  -7   1   85.01    8.06
   5   7   2  153.53   16.71
   5  -7   2  155.94   11.23
   5   7   2  158.65   17.39
  -5  -7  -2  133.22    9.06
   5   7   3    6.14    5.34
  -5   7  -3   -1.71    2.52
   5  -7   3    0.59    2.67
   5   7   3    1.52    5.48
   5  -7   3   -4.58    2.98
   5   7   4  185.11   19.59
   5   7   4  185.58   19.51
   5  -7   4  185.69   13.59
   5  -7   4  189.42   13.35
   5   7   5  143.87   18.07
   5  -7   5  183.91   13.23
   5  -7   6  110.16   11.61
   5   7   6  128.99   17.00
   5  -7   6  113.06   10.58
   5  -7   7  109.37   10.85
   5   7   7  114.47   16.35
   5  -7   7  109.03   11.80
   5  -7   8  971.09   49.40
   5  -7   8  826.07   49.50
   5  -7   8  881.86   47.41
  -5  -7  -8  918.24   49.07
   5   7   8  921.16   54.97
   5   7   8  935.47   56.32
   5   7   9  254.57   24.93
   5   7   9  287.24   25.04
   5  -7   9  230.08   18.93
   5  -7   9  256.46   21.95
   5  -7   9  255.92   19.76
   5  -7  10  585.19   38.64
   5   7  10  570.47   41.80
   5  -7  10  642.37   36.16
   5  -7  10  603.03   36.49
   5   7  10  544.55   39.86
   5   7  11  446.02   34.29
   5  -7  11  334.89   28.69
   5   7  11  378.92   30.91
   5  -7  11  417.43   27.00
   5   7  12 1191.01   67.78
   5  -7  12 1122.41   58.99
   5   7  12 1064.95   64.25
   5  -7  12 1148.90   63.77
   5  -7  13  115.14   15.12
   5   7  13  156.85   19.96
   5   7  13  139.73   17.36
   5  -7  13  122.13   13.52
   5   7  14    8.37    6.26
   5   7  14    7.68    7.86
   5  -7  14    2.74    6.07
   5  -7  14    7.46    5.15
   5   7  15    1.85    7.78
   5  -7  15   -1.05    4.43
   5   7  15   -5.06    4.59
   5  -7  16  222.37   18.25
   5   7  16  242.90   23.82
   5   7  16  231.83   18.07
   5   7  17   16.34    5.74
   5  -7  17    7.95    5.19
   5   7  18  423.55   26.12
   5  -7  18  389.34   25.88
   5  -7  19   49.83    8.13
   5   7  19   70.60    8.97
   5   7  20    8.49    4.44
   5  -7  20   16.56    5.19
   5  -7  21   59.08    7.64
   5   7  21   53.78    7.41
   5   7  22  338.15   20.25
   5  -7  22  357.09   20.50
   5  -7  23   68.48    6.66
  -5  -9  24  269.83   16.02
   5  -9 -23   15.78    4.76
  -5  -9  23   13.94    4.20
   5  -9 -23   22.95    4.55
   5  -9 -22  111.44   13.32
   5  -9 -22  137.37   11.52
  -5  -9  22  137.16   11.39
   5  -9 -21   10.30    7.39
  -5  -9  21    9.44    4.17
   5  -9 -20  287.54   27.91
  -5  -9  20  335.94   21.29
   5  -9 -19    2.38   10.01
  -5  -9  19    7.48    3.94
   5  -9 -18  309.46   35.06
  -5  -9  18  374.30   23.58
   5  -9 -17    3.19   11.11
  -5  -9  17   11.45    5.19
   5  -9 -16   99.89   22.20
  -5   9  15   74.28   12.17
   5  -9 -15   52.69    8.16
  -5   9  14   12.29    6.61
   5  -9 -14   12.06   13.35
   5   9 -14   16.68    7.91
   5  -9 -14   15.46    4.87
  -5  -9  14   12.67    5.05
  -5   9  13  199.16   18.41
   5   9 -13  181.53   20.85
   5  -9 -13  206.05   26.33
   5  -9 -13  175.54   14.45
   5   9 -13  166.93   15.26
  -5  -9  13  168.73   13.76
   5  -9 -12   80.49    9.34
   5   9 -12   90.54   10.97
   5  -9 -12  122.72   19.10
   5   9 -12   88.05   15.89
  -5  -9  12   90.23    9.47
   5   9 -11   10.91    8.68
  -5  -9  11    2.06    3.32
   5  -9 -11   12.81   10.30
   5  -9 -11    2.28    3.36
  -5   9  11    1.93    8.12
   5   9 -11   -2.12    4.46
   5  -9 -10  339.45   22.23
   5   9 -10  359.85   33.31
  -5  -9  10  384.45   22.44
  -5   9  10  403.95   32.17
   5  -9 -10  392.57   31.81
   5   9 -10  381.08   25.95
   5  -9  -9  505.77   27.86
   5  -9  -9  486.64   28.07
   5  -9  -9  464.71   35.24
   5   9  -9  542.29   40.72
   5   9  -9  455.02   30.58
  -5   9   9  459.08   35.91
   5  -9  -8  533.38   29.47
  -5   9   8  530.55   37.91
   5  -9  -8  532.88   36.38
   5  -9  -8  489.65   28.29
   5   9  -8  524.89   33.12
   5   9  -8  498.62   40.23
   5  -9  -7    9.15    3.52
   5  -9  -7    4.45    4.05
   5   9  -7    8.74    8.95
  -5   9   7    1.70    6.37
   5   9  -7    2.47    4.92
   5  -9  -6  249.60   16.45
  -5   9   6  208.82   21.80
   5  -9  -6  249.81   17.18
   5   9  -6  280.24   27.06
   5   9  -6  266.66   21.53
   5  -9  -5  123.97   11.15
   5   9  -5  126.22   17.71
   5   9  -5  109.88   17.35
  -5   9   5  118.78   15.34
   5   9  -5  124.15   14.05
   5  -9  -5  110.70    9.93
   5  -9  -4    4.15    2.98
   5   9  -4    9.14    7.49
   5  -9  -4    2.82    3.48
   5   9  -4   16.17    9.15
   5   9  -4    6.45    5.43
   5  -9  -3   48.40    6.24
   5   9  -3   41.65   11.37
   5  -9  -3   55.23    7.09
   5   9  -3   63.22   13.11
   5   9  -3   52.93    9.74
   5  -9  -2  208.11   15.17
   5   9  -2  210.47   22.50
   5   9  -2  222.86   19.35
   5   9  -2  244.12   24.94
   5   9  -1   -1.80    6.51
   5   9  -1    1.27    5.19
   5   9  -1   -3.92    7.58
   5  -9  -1   -0.70    3.16
  -5  -9   0  114.70    9.81
   5  -9   0  140.54   11.73
   5   9   0  101.51   15.82
   5   9   0  134.42   18.04
   5   9   1  314.56   28.72
   5   9   1  333.40   30.17
   5  -9   1  373.32   22.22
   5   9   2  105.04   16.15
   5  -9   2   99.26   10.16
   5   9   2  101.71   16.16
   5   9   3   -1.92    6.92
   5  -9   3    6.17    4.15
   5   9   3    4.16    7.51
   5  -9   3    3.17    4.26
   5   9   4  887.66   58.43
   5  -9   4  987.74   49.44
   5   9   4  991.59   61.05
   5  -9   5  205.36   16.09
   5   9   5  224.33   24.94
   5   9   5  181.96   22.20
   5  -9   6 1179.27   62.37
   5   9   6 1291.06   75.51
   5   9   7   38.31   12.74
  -5  -9  -7   31.16    8.11
   5   9   7   21.25    9.70
   5  -9   7   28.35    6.78
  -5  -9  -8  130.93   14.94
   5   9   8  168.58   21.62
   5   9   8  185.81   22.79
   5  -9   8  152.09   14.91
   5   9   9   13.06    8.67
   5  -9   9    8.15    6.17
  -5  -9  -9    6.99    6.75
   5   9  10  162.69   22.02
  -5  -9 -10  203.59   20.20
   5  -9  10  180.00   16.24
   5   9  11   12.79    8.98
   5  -9  11   11.29    5.54
   5   9  12   59.89   13.83
   5   9  12   53.01   13.37
   5   9  12   50.94    7.85
   5  -9  12   45.74    8.25
   5   9  13   68.46   13.19
   5   9  13   51.13   12.95
   5   9  13   53.39    7.99
   5  -9  13   55.04    8.86
   5   9  14  158.03   19.68
   5   9  14  158.39   13.52
   5  -9  14  157.09   13.95
   5   9  15   38.68   11.47
   5   9  15   43.21    7.04
   5  -9  15   29.82    6.38
   5  -9  16 1257.18   64.42
   5   9  16 1347.32   64.48
   5   9  17   41.24    9.74
   5   9  17   35.20    5.85
   5  -9  17   39.35    6.48
   5   9  18 1183.86   58.32
   5  -9  18 1055.77   51.77
   5   9  18 1045.73   51.64
   5   9  19   22.61    4.59
   5  -9  19   31.97    4.79
   5   9  20  211.37   12.92
  -5  11  21   94.93    7.22
   5 -11 -20   31.91    6.43
   5 -11 -19   78.48   11.13
   5 -11 -18   75.21   13.31
   5 -11 -17  209.97   24.51
   5 -11 -16   30.97   13.24
   5 -11 -16   29.84    5.76
   5 -11 -15   97.34   10.32
   5 -11 -15  102.39   21.35
   5 -11 -14  126.30   12.05
   5 -11 -14  189.89   27.21
   5 -11 -13  292.65   20.50
  -5 -11  13  325.97   22.04
   5 -11 -13  350.48   37.01
   5 -11 -12  116.68   11.70
  -5 -11  12  130.74   12.47
   5 -11 -12  145.75   23.87
   5 -11 -11    5.13   10.50
   5 -11 -11    1.65    3.56
  -5 -11  11    5.62    4.39
  -5 -11  10   40.64    6.76
   5 -11 -10   38.71    6.97
   5  11 -10   35.60   10.43
   5 -11 -10   25.64   11.58
   5 -11  -9   -2.13    8.22
   5  11  -9    8.11    8.30
  -5 -11   9    4.65    4.30
   5 -11  -9    0.83    3.82
   5 -11  -8    9.10    4.75
   5  11  -8   17.93   10.83
  -5 -11   8   10.15    4.42
   5 -11  -8   19.65    9.30
   5 -11  -7   52.23    8.01
   5  11  -7   45.43   13.63
  -5  11   6    4.11    5.45
   5  11  -6    1.37    5.14
   5  11  -6    7.46   10.19
   5 -11  -6    1.66    3.93
   5 -11  -5    5.00    4.03
   5  11  -5   15.11   11.91
   5  11  -5    5.67    5.81
   5 -11  -4  126.33   16.15
   5 -11  -4  128.58   12.02
   5  11  -4   92.48   13.49
   5  11  -3  470.10   38.50
   5 -11  -3  386.34   24.88
   5  11  -3  352.37   28.74
   5 -11  -3  444.76   25.44
   5  11  -2  244.40   27.80
   5 -11  -2  275.08   18.90
   5 -11  -2  263.91   18.44
   5  11  -2  241.35   22.43
   5 -11  -1  288.51   19.55
   5 -11  -1  291.34   19.82
   5  11  -1  273.27   29.34
   5  11  -1  266.61   23.72
   5 -11   0  297.42   20.05
   5 -11   0  248.11   18.64
   5  11   0  277.70   28.68
   5  11   0  304.38   28.12
   5  11   0  275.71   23.25
   5  11   1  262.90   27.51
   5  11   1  219.10   24.51
   5  11   1  208.72   20.10
   5 -11   1  227.77   17.25
   5  11   2   22.96   11.33
   5  11   2   18.19    6.80
   5  11   2   16.25    9.02
   5  11   3   96.84   16.55
   5  11   3  107.11   18.54
   5 -11   3  107.99   11.58
  -5 -11  -4   10.96    4.33
   5  11   4   21.92   10.72
   5  11   4    6.76    8.16
   5 -11   4   18.85    5.71
   5 -11   5   20.62    5.94
  -5 -11  -5    4.83    3.92
  -5 -11  -5   20.41    7.41
   5  11   5   29.02   11.21
   5  11   5   15.65    9.46
   5  11   6   -2.20    7.64
  -5 -11  -6    1.27    5.22
  -5 -11  -6    0.90    4.08
   5  11   6    5.72    7.59
   5 -11   6   -1.03    4.54
  -5 -11  -7   -1.30    6.17
  -5 -11  -7   -2.04    4.61
   5  11   7    2.15    8.30
   5  11   7    1.85    7.96
   5 -11   7    5.39    5.10
  -5 -11  -8   41.52    8.51
   5  11   8   44.21   10.93
   5  11   8   62.48   13.74
   5 -11   8   32.57    8.37
  -5 -11  -8   39.74    9.51
   5  11   9  810.50   50.20
   5  11   9  924.04   54.81
  -5 -11  -9  752.30   47.86
   5  11  10  397.66   29.84
   5  11  10  428.48   32.54
   5  11  11 1105.23   62.35
   5  11  11 1176.73   65.80
   5  11  12  234.11   20.86
   5  11  13  601.13   36.77
  -5 -11 -14   88.61   10.93
   5  11  14   69.58   10.38
   5  11  15   53.84    8.14
   5 -13 -15   38.17    9.00
   5 -13 -14    7.41    9.30
   5 -13 -13  112.87   20.24
   5 -13 -12   -5.57   12.60
   5 -13 -11   27.31    5.65
   5 -13 -11   46.62   17.38
   5 -13 -10    5.23    3.68
   5 -13 -10    2.83   12.53
   5 -13  -9  725.83   38.06
   5 -13  -9  742.24   39.43
  -5 -13   9  733.63   38.55
   5 -13  -8   12.81    4.45
  -5 -13   8   13.52    4.16
   5 -13  -8   13.62    4.65
   5 -13  -8    2.42   10.44
   5 -13  -7  876.68   44.41
   5 -13  -7  874.00   43.40
  -5 -13   7  833.24   42.99
   5 -13  -6   15.23    4.85
   5 -13  -6   16.82    4.72
  -5 -13   6   10.32    4.07
   5 -13  -5  492.07   28.29
  -5 -13   5  506.43   27.55
   5 -13  -5  483.33   27.51
   5  13  -5  454.69   34.28
   5 -13  -4  167.34   13.16
   5 -13  -4  189.27   20.53
  -5 -13   4  167.07   12.95
   5  13  -4  158.90   19.35
   5 -13  -4  148.93   13.16
   5 -13  -3    3.56    4.00
   5  13  -3    1.89    7.73
  -5 -13   3    0.71    3.15
   5 -13  -3   -3.23    7.32
   5 -13  -2   22.59    8.39
   5  13  -2    5.92    8.76
   5 -13  -2   21.15    5.23
   5 -13  -1   92.24    9.95
   5  13  -1  118.16   17.26
   5 -13  -1  104.85   13.94
   5  13   0  128.74   18.60
   5 -13   0  108.25   13.73
   5 -13   0  118.44   11.20
  -5 -13  -1  180.02   17.58
   5  13   1  208.21   22.94
   5 -13   1  207.99   18.11
   5 -13   2    1.06    4.79
   5  13   2    5.56    8.00
  -5 -13  -2    3.52    5.43
   5 -13   3  917.49   48.18
  -5 -13  -3  882.55   49.85
   5  13   3  946.06   55.89
  -5 -13  -4   14.90    6.75
   5 -13   4   13.09    4.95
   5 -13   4   10.81    5.09
   5  13   4    6.58    7.46
   5  13   5 1749.09   82.64
  -5 -13  -5 1662.27   78.25
   5  13   6    1.40    6.03
  -5 -13  -6    2.36    5.47
   5 -13   6    5.23    3.13
  -5 -13  -7  178.47   15.48
   5  13   7  259.40   18.51
  -6   0  30   68.64    7.14
  -6   0  29   -0.59    3.03
  -6   0  29    1.39    1.48
  -6   0  28   15.43    4.72
  -6   0  28   15.76    4.38
  -6   0  27   -0.73    3.39
  -6   0  26   96.27   10.13
  -6   0  25    8.06    3.97
  -6   0  25    3.47    2.91
  -6   0  24  207.74   16.73
  -6   0  24  257.98   17.38
   6   0 -24  206.52   15.90
  -6   0  23   -2.11    3.27
  -6   0  23   -7.24    4.25
   6   0 -23    2.99    6.12
   6   0 -23    0.75    2.88
  -6   0  22  191.08   14.14
   6   0 -22  188.35   13.47
   6   0 -22  178.89   19.47
  -6   0  22  186.99   14.80
  -6   0  21    0.74    3.79
   6   0 -21    6.67    7.02
  -6   0  21    1.30    3.13
  -6   0  20 1264.78   62.70
   6   0 -20 1377.54   73.90
  -6   0  20 1385.49   64.01
  -6   0  19    3.87    3.89
  -6   0  19   -1.14    2.81
   6   0 -19   -1.72    7.22
  -6   0  18  706.00   34.54
   6   0 -18  783.65   46.49
  -6   0  17    2.92    2.78
   6   0 -17    6.68    7.56
  -6   0  17    3.22    2.89
  -6   0  16 1801.64   80.93
  -6   0  16 1812.03   80.34
   6   0 -16 1711.80   82.48
  -6   0  15    2.82    2.43
   6   0 -15   -1.87    3.19
  -6   0  15    1.32    2.36
   6   0 -14    5.90    3.33
   6   0 -13   -0.57    3.18
   6   0 -12  405.01   22.63
   6   0 -11   -0.53    3.25
   6   0 -10 1955.47   88.60
   6   0  -9   -0.34    1.34
   6   0  -9    2.06    3.62
   6   0  -8 6007.78  253.99
   6   0  -8 5828.86  257.44
   6   0  -8 5939.77  253.53
   6   0  -7    2.29    1.36
   6   0  -7    2.33    1.59
   6   0  -6 8755.62  368.46
   6   0  -6 8590.30  368.01
   6   0  -5    2.90    1.49
   6   0  -5    2.20    1.59
   6   0  -4  175.13    8.89
   6   0  -4  181.94    9.20
   6   0  -4  170.29   11.82
   6   0  -3   -0.15    1.38
   6   0  -3    0.14    1.43
   6   0  -2  346.89   16.92
   6   0  -2  369.65   18.58
   6   0  -1    0.36    1.75
   6   0  -1    0.71    2.41
   6   0   0  831.13   38.20
   6   0   0  869.40   38.11
   6   0   1    1.31    1.96
   6   0   1    0.66    1.57
   6   0   2 2656.94  113.83
   6   0   2 2611.93  112.09
   6   0   3    2.44    2.01
   6   0   3    2.79    0.93
   6   0   4 2060.75   74.20
   6   0   4 1604.99   70.63
   6   0   5    8.48    2.70
   6   0   5    3.03    0.69
   6   0   6 1043.14   47.71
   6   0   6 1013.37   47.64
   6   0   7    5.39    2.92
   6   0   7    0.84    2.68
   6   0   8    5.43    2.59
   6   0   8    2.26    2.59
   6   0   9    0.98    2.41
   6   0   9    1.95    2.98
   6   0  10 1479.01   67.50
   6   0  10 1431.78   67.23
   6   0  11    0.57    2.86
   6   0  11    5.07    3.69
   6   0  12  105.24    9.38
   6   0  12   95.61    8.94
   6   0  12   96.17    9.61
   6   0  12   99.02   10.52
   6   0  12  109.12   11.28
   6   0  13   -0.65    2.94
   6   0  13   -1.96    3.22
   6   0  13    0.85    3.74
   6   0  13   -3.99    4.20
   6   0  13    0.72    2.95
   6   0  14   15.53    5.93
   6   0  14    6.96    3.45
   6   0  14    9.72    4.41
   6   0  14   10.72    4.89
   6   0  14    8.38    3.98
   6   0  15    3.70    3.85
   6   0  15    5.19    4.11
   6   0  15    1.60    3.63
   6   0  15   -0.94    4.16
   6   0  15    1.07    4.51
   6   0  16 1185.45   58.97
   6   0  16 1266.41   61.38
   6   0  16 1163.87   59.17
   6   0  16 1180.32   58.85
   6   0  17   11.50    5.08
   6   0  17   -1.01    4.35
   6   0  17   12.14    4.89
   6   0  17    2.58    3.98
   6   0  18 1014.86   48.95
   6   0  18  899.22   47.90
   6   0  18  867.34   48.99
   6   0  18  921.56   47.76
   6   0  19    3.44    4.47
   6   0  19   -0.86    4.13
   6   0  19   -1.00    4.21
   6   0  19    3.34    3.51
   6   0  20  143.29   13.67
   6   0  20  149.02   13.21
   6   0  20  136.62   12.55
   6   0  20  130.81   12.35
   6   0  21   -0.89    4.28
   6   0  21    1.62    3.92
   6   0  21   -0.75    3.40
   6   0  22    9.04    4.18
   6   0  22    0.65    3.09
   6   0  22    2.38    4.05
   6   0  23   -2.03    3.46
   6   0  23   -0.52    1.52
   6   0  23   -1.20    3.06
   6   0  23    1.36    3.22
   6   0  24    1.67    2.85
   6   0  24   -1.56    3.05
   6   0  25    1.68    2.56
   6   0  25   -2.59    2.83
   6   0  26  277.60   14.75
  -6  -2  30  173.78   11.41
  -6   2  30  162.66   11.22
  -6  -2  30  147.48   11.05
  -6   2  29    0.55    3.16
  -6  -2  29    3.54    3.23
  -6  -2  29    3.21    3.02
  -6  -2  28  110.38    9.94
  -6   2  28  109.72    9.98
  -6  -2  27  191.25   13.88
  -6   2  27  168.21   13.71
  -6   2  27  188.38   13.98
  -6   2  26  333.57   21.12
  -6   2  26  365.87   22.06
  -6  -2  26  334.44   20.86
  -6  -2  25   12.92    4.75
   6  -2 -25   21.70    7.11
  -6   2  25   21.06    5.32
  -6   2  25   13.12    5.04
   6  -2 -24  300.58   20.09
  -6  -2  24  257.97   19.95
  -6   2  24  327.45   21.33
  -6   2  24  351.70   21.33
  -6  -2  24  325.70   20.69
   6  -2 -24  334.69   25.89
  -6  -2  23   80.71    9.30
  -6  -2  23   78.67    9.04
   6  -2 -23   72.66    8.81
  -6   2  23   77.92    9.31
   6  -2 -23   99.80   14.00
   6  -2 -22    6.72    3.76
  -6  -2  22    5.24    3.70
  -6   2  22    9.32    4.05
  -6  -2  22   13.68    4.41
   6  -2 -22    3.42    6.62
  -6  -2  21    7.19    3.76
  -6   2  21   12.66    4.57
  -6  -2  21   13.87    4.75
  -6   2  21   12.87    3.57
   6  -2 -21    5.46    7.04
  -6  -2  20   16.59    4.73
  -6  -2  20   19.77    4.94
  -6   2  20   16.97    4.07
   6  -2 -20   28.63   10.45
   6  -2 -20   14.97    4.06
  -6   2  20   20.39    5.09
   6   2 -20   18.53    5.00
  -6  -2  19  176.88   13.31
  -6   2  19  164.60   11.87
   6  -2 -19  178.24   21.53
  -6   2  19  180.65   13.49
   6  -2 -19  189.85   13.16
  -6  -2  19  179.33   13.39
   6   2 -19  197.90   14.52
  -6  -2  18    8.32    3.51
  -6  -2  18    7.77    3.48
  -6   2  18    6.49    2.75
  -6   2  18   13.84    3.87
   6   2 -18    5.03    6.27
   6  -2 -18    6.53    2.99
   6   2 -18   11.62    4.04
   6  -2 -18   12.22    8.11
  -6   2  17  598.94   30.02
   6   2 -17  545.82   31.99
  -6   2  17  579.77   31.07
   6   2 -17  727.00   43.39
   6  -2 -17  616.32   30.80
  -6  -2  17  592.96   31.27
  -6  -2  17  621.14   31.25
   6  -2 -17  672.95   45.78
  -6   2  16 1096.56   51.14
   6  -2 -16 1189.04   68.69
   6   2 -16 1157.77   64.51
   6  -2 -16 1145.19   51.87
  -6  -2  16 1081.65   52.18
  -6   2  16 1087.71   52.27
  -6  -2  16 1131.51   52.45
   6   2 -16 1061.46   53.79
   6  -2 -15 1184.27   54.10
  -6   2  15 1186.27   53.68
  -6  -2  15 1157.00   54.76
  -6   2  15 1155.50   54.60
  -6  -2  15 1183.40   54.70
   6   2 -15 1187.81   56.75
  -6   2  14  642.35   31.15
   6  -2 -14  675.79   31.61
   6   2 -14  648.76   34.18
   6  -2 -13 1281.82   56.40
   6   2 -13 1191.50   59.10
   6   2 -12  161.46    8.48
   6  -2 -12  176.93    9.91
   6   2 -12  174.44   12.36
   6  -2 -11  121.06    7.21
   6   2 -11  105.01    5.71
   6   2 -11  103.02    9.22
   6   2 -10   22.58    1.82
   6  -2 -10   22.13    2.72
   6   2 -10   17.79    4.44
   6   2  -9   15.04    4.02
   6  -2  -9   13.40    2.47
   6  -2  -9   21.53    2.50
   6   2  -9   14.96    1.36
   6  -2  -8  338.24   16.22
   6   2  -8  374.19   19.15
   6  -2  -8  387.27   16.12
   6   2  -7   24.47    4.65
   6  -2  -7   22.60    2.55
   6   2  -6  181.59   12.37
   6  -2  -6  200.14   10.21
   6   2  -5  837.35   37.39
   6   2  -4  436.04   20.28
   6   2  -3  855.07   38.04
   6  -2  -3  889.37   38.58
   6   2  -3  819.97   39.95
   6  -2  -2 1528.93   68.63
   6   2  -2 1673.03   68.90
   6  -2  -2 1576.81   68.64
   6   2  -2 1559.13   68.00
   6   2  -2 1491.48   69.66
   6   2  -1  577.55   27.97
   6   2  -1  620.43   27.35
   6  -2  -1  592.55   27.62
   6  -2  -1  573.25   27.70
   6  -2  -1  614.88   27.41
   6  -2   0 1025.27   45.21
   6   2   0 1055.53   46.08
   6   2   0 1033.77   45.07
   6  -2   0  938.08   45.47
   6  -2   1  655.40   28.74
   6   2   1  583.79   28.42
   6   2   2  404.13   18.87
   6  -2   2  359.17   18.60
   6  -2   3  250.18   13.59
   6   2   3  258.09   13.62
   6   2   4  115.42    7.91
   6  -2   4  128.31    8.28
   6  -2   5  583.22   27.62
   6   2   5  544.26   27.45
   6   2   6    2.31    2.46
   6  -2   6    1.18    2.72
   6   2   6    1.11    2.12
   6  -2   7  130.17    9.35
   6   2   7  125.32    9.30
   6   2   7  136.10    9.36
   6  -2   7  127.56    9.20
   6   2   8 1214.40   55.42
   6  -2   8 1140.27   55.12
   6  -2   8 1173.96   55.04
   6   2   8 1223.08   55.29
   6  -2   9  909.33   43.97
   6   2   9  896.77   44.04
   6  -2   9  916.23   43.86
   6   2   9  939.41   44.10
   6  -2  10 1541.27   71.63
   6   2  10 1623.87   72.19
   6   2  10 1565.06   71.88
   6  -2  10 1514.46   71.65
   6  -2  11  793.30   37.80
   6   2  11  583.69   37.45
   6  -2  11  660.07   37.99
   6   2  11  832.88   38.36
   6  -2  11  825.07   40.52
   6   2  11  688.24   38.55
   6  -2  11  786.47   37.59
   6   2  11  796.14   38.02
   6  -2  11  816.68   39.86
   6   2  12 1283.30   59.85
   6   2  12 1256.77   59.74
   6   2  12 1404.90   68.43
   6  -2  12 1286.99   59.53
   6  -2  12 1242.47   61.32
   6  -2  12 1193.52   59.07
   6  -2  12 1244.98   61.79
   6   2  12 1188.03   60.92
   6  -2  13   93.03    8.78
   6  -2  13   97.68    8.98
   6   2  13   89.96    9.04
   6   2  13   98.81   13.51
   6  -2  13   90.00   10.32
   6   2  13   90.48    8.87
   6   2  13   86.09   10.01
   6  -2  13   81.02    9.68
   6  -2  14   36.18    6.05
   6   2  14   39.18    6.44
   6   2  14   37.38    6.09
   6   2  14   41.28    9.46
   6  -2  14   43.84    6.46
   6  -2  14   35.32    6.86
   6   2  14   43.52    7.26
   6  -2  14   37.72    6.97
   6   2  15    2.88    6.66
   6  -2  15   -1.39    2.77
   6   2  15    0.73    3.14
   6  -2  15    4.23    3.72
   6   2  15    2.21    4.03
   6   2  15    1.89    4.28
   6  -2  15    2.73    3.92
   6  -2  15    0.93    4.00
   6   2  16    9.96    5.27
   6   2  16    3.87    3.74
   6   2  16    7.18    6.50
   6  -2  16    0.75    3.81
   6  -2  16   11.13    4.99
   6  -2  16    2.20    3.25
   6   2  16    5.30    3.51
   6  -2  16    5.80    4.18
   6   2  17   59.48   11.82
   6   2  17   81.89    9.56
   6   2  17   86.89   10.84
   6  -2  17   87.50    9.51
   6  -2  17   95.26   10.72
   6   2  17   79.56    9.13
   6  -2  17   54.19    7.90
   6  -2  17   95.56   10.99
   6  -2  18   91.21   10.27
   6   2  18  120.99   14.94
   6  -2  18  104.25   11.44
   6  -2  18  111.24   10.80
   6   2  18  118.81   11.06
   6  -2  18   94.62   11.40
   6   2  18  106.68   10.97
   6   2  18  121.87   12.71
   6   2  19   82.86    9.36
   6  -2  19   81.80    9.85
   6  -2  19   84.82    9.60
   6  -2  19   78.72    9.78
   6   2  19   95.52   10.09
   6   2  19   82.35   10.91
   6  -2  19   87.48   10.77
   6   2  20  192.44   16.31
   6   2  20  197.92   15.13
   6  -2  20  195.80   15.13
   6  -2  20  184.46   15.82
   6  -2  20  168.76   14.75
   6  -2  21   82.20    9.33
   6   2  21   89.99    9.67
   6  -2  21   88.46    9.64
   6  -2  21   72.86    9.52
   6   2  21   74.76    9.87
   6   2  22  243.21   16.34
   6  -2  22  233.91   16.26
   6   2  22  223.96   15.38
   6   2  22  237.98   17.44
   6  -2  22  241.41   15.68
   6  -2  22  222.61   16.71
   6  -2  22  211.44   15.53
   6  -2  23  367.60   22.29
   6  -2  23  421.50   21.85
   6   2  23  372.26   21.20
   6  -2  23  345.30   20.84
   6   2  23  386.63   23.00
   6  -2  23  345.94   21.71
   6  -2  24   87.42    8.02
   6  -2  24   99.26    8.33
   6   2  24   98.52    9.17
   6  -2  24   79.23    8.14
   6   2  24  109.25    8.45
   6   2  25  111.94    9.20
   6  -2  25  123.61    8.80
   6   2  25  118.97    8.63
   6   2  26   65.24    5.75
  -6  -4  30   14.47    3.44
  -6  -4  29   50.54    6.28
  -6   4  29   49.04    5.56
  -6   4  28    3.26    2.62
  -6  -4  28    0.47    2.63
  -6   4  28   -0.58    2.97
  -6  -4  28    0.66    3.50
  -6  -4  27  221.31   14.67
  -6   4  27  225.71   14.79
   6  -4 -27  212.77   16.98
  -6   4  27  234.93   16.22
  -6  -4  26   25.74    5.13
  -6   4  26   25.06    5.05
   6  -4 -26   24.28    6.98
  -6   4  25   14.59    4.44
   6  -4 -25   19.62    7.50
  -6  -4  25   15.21    4.52
  -6   4  24    9.75    4.11
   6  -4 -24   11.98    7.53
  -6  -4  24   10.39    4.20
   6  -4 -23  415.16   26.76
   6  -4 -23  456.10   33.70
  -6  -4  23  439.32   26.40
  -6   4  23  488.46   26.63
  -6   4  23  431.26   26.27
  -6  -4  23  465.58   26.18
   6  -4 -22    4.29    3.97
  -6   4  22    2.88    3.75
  -6  -4  22    6.42    3.84
   6  -4 -22    1.86    7.39
  -6   4  22   -1.53    3.47
  -6  -4  22    5.39    3.87
  -6  -4  22    3.96    3.42
   6  -4 -21  370.87   33.09
  -6   4  21  441.23   24.40
  -6  -4  21  397.50   24.38
  -6  -4  21  371.96   23.34
   6  -4 -21  406.10   25.23
   6  -4 -20    2.23    7.77
  -6   4  20    7.55    3.99
  -6  -4  20    8.83    3.61
   6  -4 -20    6.65    3.86
   6   4 -20   11.51    4.07
  -6   4  19  467.21   25.40
   6  -4 -19  447.94   38.51
   6  -4 -19  428.59   26.26
   6   4 -19  398.64   25.53
  -6  -4  19  457.46   25.29
   6  -4 -18  106.00   19.73
   6   4 -18   91.57    9.79
   6  -4 -18  107.17   10.17
  -6   4  18   86.40    8.67
  -6  -4  18   98.32    9.18
   6  -4 -17   80.29    8.51
   6   4 -17   76.81    8.95
  -6   4  17   88.65    8.21
   6  -4 -17   79.54   18.70
  -6  -4  17   75.00    7.81
  -6  -4  16   18.13    3.97
   6  -4 -16    2.95   10.66
  -6   4  16   21.94    6.65
  -6   4  16   21.89    4.27
   6   4 -16    8.05    3.74
   6  -4 -16   22.50    4.61
  -6   4  15  486.55   23.76
  -6  -4  15  458.31   24.16
  -6  -4  15  444.92   23.37
  -6   4  15  350.95   26.58
   6  -4 -15  447.88   24.24
   6  -4 -15  375.98   39.03
   6   4 -15  395.88   24.82
  -6  -4  14   20.61    3.95
   6  -4 -14   26.61   12.87
  -6   4  14   24.89    3.94
  -6  -4  14   17.51    3.63
   6   4 -14   17.93    4.74
  -6   4  14   21.62    6.34
   6   4 -13   61.28    7.28
  -6  -4  13   63.89    5.76
  -6   4  13   58.71    5.62
  -6  -4  13   66.29    6.52
  -6  -4  12    3.46    2.29
  -6   4  12    2.09    2.30
   6   4 -12    0.66    3.32
   6   4 -11   43.66    6.55
   6  -4 -10    7.25    2.65
   6   4 -10   -0.64    3.11
   6   4  -9 3707.63  163.52
   6  -4  -9 3689.43  160.33
   6   4  -8    3.75    3.77
   6  -4  -8   -0.33    2.02
   6   4  -7 1710.56   80.23
   6  -4  -7 1757.70   77.23
   6   4  -6    9.30    4.23
   6  -4  -6   11.74    2.61
   6   4  -5  367.08   17.90
   6   4  -5  338.49   21.07
   6  -4  -5  396.93   19.07
   6   4  -4   13.18    2.36
   6   4  -4   10.26    1.88
   6  -4  -4   12.58    2.69
   6   4  -4   10.98    3.91
   6  -4  -4   12.58    2.20
   6   4  -3  399.82   19.31
   6   4  -3  388.27   18.50
   6  -4  -3  395.47   19.71
   6  -4  -3  398.09   19.30
   6   4  -2    8.89    2.10
   6  -4  -2   10.21    2.13
   6   4  -2    6.44    1.50
   6  -4  -2    6.62    2.22
   6  -4  -1  388.39   19.30
   6  -4  -1  380.20   19.42
   6  -4   0   11.57    1.99
   6  -4   0    5.77    2.35
   6  -4   0   12.56    2.66
   6  -4   1  697.38   33.30
   6  -4   1  678.57   33.04
   6   4   1  716.70   31.97
   6  -4   1  693.99   31.96
   6  -4   2   90.60    6.44
   6  -4   2  108.36    7.92
   6   4   2  101.28    6.53
  -6   4  -3 3162.16  136.76
   6   4   3 3190.52  137.56
   6  -4   3 3156.57  137.57
   6  -4   3 3225.53  139.48
   6  -4   4   83.40    6.41
   6   4   4   99.85    6.81
   6  -4   4   83.18    7.69
   6   4   5 7271.06  313.87
   6  -4   5 7124.27  314.40
   6  -4   5 7437.88  314.16
   6  -4   5 7572.23  316.82
   6  -4   6   18.95    3.54
   6  -4   6   22.94    5.59
   6   4   6   20.59    3.76
   6   4   6   22.38    3.63
   6  -4   6   18.58    3.92
   6   4   7  516.42   26.09
   6  -4   7  524.19   29.60
   6  -4   7  494.10   25.92
   6   4   7  497.77   25.66
   6  -4   7  504.71   26.37
   6   4   8   24.64    4.33
   6  -4   8   27.72    4.45
   6   4   8   27.19    4.24
   6  -4   8   29.39    4.78
   6  -4   9   60.03    6.86
   6   4   9   57.46    6.43
   6   4   9   71.98    7.28
   6   4   9   64.17   10.48
   6  -4   9   73.71    7.10
   6  -4   9   56.78    7.68
   6   4  10   -3.45    4.84
   6   4  10    1.27    5.06
   6  -4  10    0.56    2.70
   6  -4  10   -0.77    2.98
   6   4  10    1.70    3.09
   6  -4  10    1.80    3.28
   6   4  10   -0.53    2.73
   6  -4  10    1.03    3.99
   6   4  11   84.51   11.96
   6  -4  11   82.06    8.50
   6   4  11   84.10    8.24
   6   4  11   70.30   11.29
   6   4  11   76.55    7.80
   6  -4  11   73.91   10.36
   6  -4  11   87.28    8.23
   6  -4  11   83.37    9.57
   6  -4  12   35.57    6.01
   6  -4  12   33.33    5.66
   6   4  12   40.41    5.89
   6   4  12   21.34    7.57
   6   4  12   52.68    6.64
   6  -4  12   50.00    8.50
   6   4  12   29.48    7.80
   6  -4  12   41.73    7.06
   6   4  13  247.18   22.58
   6  -4  13  270.18   17.84
   6   4  13  284.23   18.06
   6   4  13  281.08   22.96
   6  -4  13  253.12   20.36
   6  -4  13  272.81   17.51
   6   4  13  274.13   17.55
   6  -4  13  262.97   19.33
   6   4  14   33.00    5.56
   6  -4  14   43.85    6.60
   6   4  14   47.36    6.77
   6   4  14   36.46    9.30
   6  -4  14   34.07    5.85
   6  -4  14   32.10    7.07
   6  -4  14   45.02    7.99
   6   4  15 1120.89   62.80
   6  -4  15 1168.02   55.24
   6   4  15 1157.41   55.20
   6  -4  15 1145.36   58.01
   6  -4  15 1038.06   54.05
   6   4  15 1168.75   54.95
   6  -4  15 1006.51   56.66
   6  -4  16   18.45    5.27
   6   4  16   19.77    8.74
   6  -4  16   17.18    6.45
   6   4  16   20.05    5.15
   6   4  16   29.83    5.48
   6  -4  16   28.24    6.97
   6  -4  16   22.40    5.14
   6  -4  17 1203.34   61.53
   6  -4  17 1202.78   59.93
   6   4  17 1222.36   67.37
   6   4  17 1258.11   60.31
   6  -4  17 1205.52   59.49
   6   4  17 1327.69   63.97
   6  -4  17 1346.15   64.81
   6   4  17 1162.85   59.36
   6  -4  18    2.10    3.09
   6   4  18    4.26    5.98
   6   4  18   17.03    5.53
   6  -4  18   -2.08    4.70
   6  -4  18    5.90    3.84
   6   4  18    6.31    3.59
   6   4  18    2.95    4.27
   6  -4  19  704.85   37.45
   6   4  19  711.61   38.25
   6  -4  19  775.49   38.87
   6  -4  19  741.07   40.56
   6   4  19  731.94   37.62
   6   4  19  705.47   41.12
   6   4  19  816.77   45.28
   6  -4  20   -2.40    3.27
   6   4  20   -0.59    3.07
   6  -4  20    1.35    3.27
   6  -4  20   -1.64    3.87
   6  -4  20   -0.98    4.32
   6   4  20   -5.87    5.09
   6  -4  21   35.20    5.30
   6   4  21   32.86    4.91
   6   4  21   41.34    7.23
   6  -4  21   24.45    5.36
   6  -4  21   34.00    6.94
   6  -4  22    5.53    3.97
   6   4  22   11.17    4.50
   6  -4  22    5.12    3.17
   6   4  22    7.58    2.98
   6  -4  22    5.83    3.19
   6  -4  23    2.67    3.28
   6   4  23    6.82    3.42
   6  -4  23    2.46    2.35
   6   4  23    1.59    2.17
   6   4  24   -0.56    2.85
   6  -4  24    0.53    2.72
   6   4  25   29.04    4.44
   6   4  26    2.54    1.83
  -6   6  29    1.02    1.97
  -6  -6  29   -0.42    2.13
  -6   6  28  109.82    9.01
  -6  -6  28  112.83    9.35
  -6   6  27  118.72   10.39
  -6  -6  27  121.15   10.51
   6  -6 -26  109.17   11.95
  -6  -6  26  139.74   11.59
   6  -6 -25    4.71    5.58
   6  -6 -24    8.63    6.66
   6  -6 -23  162.35   19.29
   6  -6 -22    9.73    8.82
   6  -6 -21   11.07   10.03
  -6  -6  21    0.58    4.01
   6  -6 -21    2.93    4.00
  -6  -6  20    4.74    3.81
   6  -6 -20    7.46    8.98
  -6  -6  20   -0.58    2.99
  -6  -6  19   32.35    5.73
  -6  -6  19   23.71    4.67
   6  -6 -19   24.78   11.94
  -6  -6  18    7.44    4.14
  -6  -6  18    7.09    3.26
   6  -6 -18    2.95   11.05
   6   6 -18   14.01    4.80
  -6  -6  17  135.29   11.78
   6  -6 -17  153.29   13.48
   6  -6 -17  127.52   22.75
  -6   6  17  153.12   16.24
   6   6 -17  142.75   13.14
  -6  -6  16  122.30   10.64
   6  -6 -16  109.23   22.27
  -6   6  16  102.54   13.52
   6  -6 -16  121.95   11.65
   6   6 -16  123.84   11.96
  -6  -6  15  605.11   31.79
  -6   6  15  559.16   36.33
   6  -6 -15  547.89   46.46
   6   6 -15  578.69   33.49
   6  -6 -15  632.85   33.14
  -6  -6  14   97.27    8.63
   6  -6 -14   82.93    8.79
  -6   6  14   86.57   11.53
   6   6 -14   88.86   10.04
   6  -6 -14   96.93   17.79
  -6   6  13 1646.98   85.94
   6  -6 -13 1833.30   96.40
   6  -6 -13 1823.75   82.20
  -6  -6  13 1790.34   81.46
   6   6 -13 1782.71   84.58
   6   6 -12   53.84    7.76
  -6  -6  12   40.59    5.03
   6  -6 -12   37.66    5.49
  -6   6  12   37.32    7.44
   6  -6 -12   39.20   10.56
  -6  -6  12   49.01    5.77
   6   6 -11   76.22    8.98
  -6  -6  11   50.57    5.98
   6  -6 -11   61.23    6.61
   6  -6 -11   83.92   12.36
  -6   6  11   53.84    9.46
  -6  -6  10  113.84    8.44
  -6   6  10   79.58   11.17
   6  -6 -10   92.42   12.41
   6  -6 -10  109.08    8.71
   6   6 -10  102.17   10.64
   6  -6  -9    7.32    2.93
  -6  -6   9   12.12    3.02
   6   6  -9    8.61    4.34
  -6  -6   8  474.81   24.36
   6  -6  -8  495.85   25.58
   6   6  -8  496.76   29.01
  -6  -6   7  474.41   24.05
   6  -6  -7  505.66   25.32
   6   6  -7  489.74   23.70
   6   6  -7  462.89   28.50
   6  -6  -6  194.67   12.01
   6   6  -6  178.85   10.37
   6   6  -6  184.55   14.63
   6  -6  -5  481.44   23.95
   6   6  -5  458.81   22.08
   6   6  -5  436.54   26.90
   6  -6  -4   92.99    6.97
   6  -6  -4   75.85    6.78
   6   6  -4   71.98    5.14
   6   6  -4   80.45    8.92
   6  -6  -3 1616.44   70.68
   6   6  -3 1553.06   67.80
   6  -6  -3 1505.81   69.98
   6  -6  -2 2020.63   88.57
   6  -6  -2 1938.68   87.92
   6  -6  -1 1131.01   53.12
   6  -6  -1 1148.94   52.62
   6  -6   0  355.06   19.65
   6  -6   1  510.26   26.56
   6  -6   2   11.85    3.65
  -6   6  -3  918.90   41.78
   6  -6   3  817.34   42.70
   6  -6   4  168.95   12.16
   6  -6   4  144.83   12.01
   6   6   4  175.89   17.46
   6  -6   4  162.37   13.86
   6   6   4  186.42   18.30
   6   6   5  169.00   17.58
   6   6   5  195.09   19.21
   6  -6   5  220.42   14.48
   6  -6   5  182.04   11.16
   6  -6   5  223.53   16.70
   6  -6   6    5.20    5.21
   6   6   6    2.98    5.38
   6  -6   6    3.60    3.68
   6  -6   6   -0.84    3.53
   6   6   6    5.30    5.72
   6  -6   6    0.71    1.65
   6  -6   7  349.41   22.33
   6   6   7  306.86   25.98
   6  -6   7  311.23   17.46
   6  -6   7  345.97   21.83
   6   6   7  299.26   24.46
   6  -6   7  305.74   23.67
   6   6   8  774.74   47.32
   6  -6   8  761.68   36.50
   6  -6   8  719.24   41.12
   6  -6   8  770.43   45.44
   6   6   8  682.84   44.20
   6  -6   8  774.20   41.31
   6   6   9  640.97   43.21
   6   6   9  649.34   41.55
   6  -6   9  721.93   44.10
   6  -6   9  657.58   33.38
   6  -6   9  700.20   38.22
   6  -6  10  935.39   42.64
   6   6  10  777.28   51.53
   6   6  10  768.14   49.74
   6  -6  10  809.64   52.25
   6  -6  10  903.68   46.95
   6  -6  11  379.76   22.18
   6  -6  11  411.36   26.38
   6   6  11  433.71   30.76
   6  -6  11  397.33   32.11
   6   6  12  881.20   52.45
   6  -6  12  885.53   43.45
   6  -6  12  831.48   54.01
   6  -6  12  932.16   48.26
   6   6  13   87.29   13.64
   6  -6  13  102.76    9.18
   6  -6  13  107.55   11.91
   6   6  14   40.72    9.55
   6  -6  14   42.46   10.40
   6  -6  14   37.50    5.43
   6   6  14   32.07    7.08
   6  -6  14   30.84    7.04
   6  -6  15    2.20    2.71
   6   6  15   -2.08    4.26
   6  -6  15    5.53    5.96
   6  -6  15    2.07    5.09
   6   6  16   -1.63    7.04
   6  -6  16    1.19    5.37
   6  -6  16   -0.53    2.35
   6   6  16   -3.10    4.78
   6  -6  16    4.12    4.87
   6   6  17  356.00   23.28
   6  -6  17  286.46   18.18
   6  -6  17  320.29   22.68
   6  -6  17  317.20   22.55
   6   6  18   19.80    8.23
   6   6  18   10.62    5.33
   6  -6  18   20.77    5.55
   6  -6  18   25.40    6.44
   6   6  19   10.24    6.42
   6  -6  19    2.76    3.97
   6   6  19    5.43    4.37
   6  -6  19    3.38    3.39
   6   6  20   14.75    6.22
   6  -6  20   10.92    5.02
   6  -6  21   26.65    5.78
   6  -6  22  117.07   10.24
   6  -6  23  402.16   22.17
   6   6  24    8.34    2.64
  -6   8  27    0.39    2.19
  -6  -8  27    3.87    2.10
  -6   8  26   10.85    3.59
  -6  -8  26   11.91    3.25
   6  -8 -25    9.67    3.72
  -6  -8  25   17.99    4.34
   6  -8 -24   39.71    7.67
   6  -8 -24   41.30    5.88
  -6  -8  24   58.83    7.22
   6  -8 -23   16.84    7.46
  -6  -8  23   27.47    5.91
   6  -8 -22  154.92   18.34
   6  -8 -21   10.16    9.00
   6  -8 -20  806.16   55.92
   6  -8 -19  -11.47   13.00
   6  -8 -18   40.35    7.75
   6   8 -18   31.37    5.87
   6  -8 -18   38.49   16.15
   6  -8 -17    6.86    4.44
   6   8 -17   -1.77    7.03
   6   8 -17    7.31    3.74
   6  -8 -17   -3.39   12.68
   6   8 -16   17.95    8.84
   6  -8 -16   15.94    5.47
   6  -8 -16    3.37   11.74
   6   8 -16   14.97    5.15
   6  -8 -15   22.07   15.52
   6   8 -15   13.15    8.98
   6   8 -15    4.85    3.98
  -6   8  15   12.43    6.67
   6  -8 -15    5.34    3.94
  -6  -8  14  109.98    9.98
   6  -8 -14  121.82   11.58
   6  -8 -14  101.65   20.79
  -6   8  14  141.24   15.30
   6   8 -14  114.16   18.77
   6   8 -14  104.34   12.12
  -6  -8  13   15.27    3.86
  -6   8  13   15.81    6.56
   6   8 -13   19.16   11.34
   6   8 -13    8.12    4.73
   6  -8 -13   10.33    3.95
   6   8 -13   11.50    3.46
  -6  -8  13   14.12    3.69
   6  -8 -13   19.84   12.45
   6   8 -12  160.26   22.48
  -6  -8  12  178.79   13.03
   6   8 -12  198.77   16.67
   6   8 -12  184.09   12.74
   6  -8 -12  203.06   14.75
  -6  -8  12  185.50   13.24
   6  -8 -12  216.41   24.31
   6   8 -11    3.82    2.40
  -6  -8  11    2.17    2.57
   6   8 -11    2.32    8.38
  -6   8  11   -1.66    6.19
   6  -8 -11   -3.80    6.61
   6  -8 -11    3.58    3.31
   6   8 -11    6.32    4.77
   6  -8 -10 1047.37   59.30
   6  -8 -10 1001.54   49.43
   6   8 -10  951.79   52.48
   6   8 -10  979.89   46.69
   6   8 -10 1097.38   64.73
  -6   8  10  979.32   57.49
   6  -8  -9   59.51    7.38
  -6   8   9   61.50   11.48
   6   8  -9   65.05   13.36
   6  -8  -9   56.19   11.15
   6   8  -9   55.53    9.14
  -6   8   8  991.82   58.46
   6  -8  -8 1061.57   51.74
   6   8  -8 1050.70   63.93
   6  -8  -8 1080.56   51.57
   6   8  -8 1059.45   55.96
   6  -8  -7    1.95    3.26
   6  -8  -7    1.81    2.91
   6   8  -7   -5.64    8.11
   6   8  -7    3.35    4.58
  -6   8   7    6.83    6.46
   6   8  -6  463.37   34.96
   6   8  -6  473.13   29.98
   6  -8  -6  458.40   25.44
   6  -8  -6  455.67   26.04
  -6   8   6  473.74   31.25
   6   8  -5    6.96    7.71
   6  -8  -5    6.89    3.29
   6  -8  -5   16.13    3.90
   6   8  -5   14.50    5.91
   6   8  -4  113.27   12.70
   6   8  -4  117.42   15.75
   6  -8  -4  122.41   10.19
   6  -8  -4  129.30   10.00
   6  -8  -3    4.29    3.14
   6   8  -3    4.40    4.51
   6  -8  -3    3.73    2.68
   6  -8  -2   29.83    4.79
   6  -8  -2   27.06    5.12
   6   8  -2   33.87    9.89
   6   8  -2   35.87    7.45
   6   8  -2   24.85    8.55
   6  -8  -1   11.20    3.73
   6   8  -1    3.35    5.61
   6   8  -1   15.47    7.61
   6  -8   0  310.11   19.36
   6   8   0  331.56   28.02
   6   8   0  299.83   26.64
   6   8   1    5.22    6.72
   6  -8   1    0.66    2.93
   6   8   1   -1.80    5.75
   6   8   2  212.97   21.73
   6  -8   2  162.66   13.14
   6   8   2  176.64   20.50
   6   8   3   11.29    7.04
   6   8   3    9.23    8.36
   6  -8   3    3.70    4.11
   6   8   4  680.29   44.81
   6  -8   4  601.07   34.14
   6   8   4  652.13   44.13
   6  -8   5   23.09    5.89
   6   8   5   31.54   10.12
   6   8   6  640.87   44.48
   6  -8   6  600.08   34.70
  -6  -8  -7    7.64    5.06
   6  -8   7    9.93    5.52
   6  -8   7    9.53    5.02
   6   8   7    2.09    8.09
   6   8   8   12.87    8.06
   6   8   8   16.14    8.96
   6  -8   8   24.35    7.44
   6  -8   8   19.98    6.65
   6  -8   9    6.83    5.04
   6   8   9    8.72    9.41
   6   8   9   -2.01    6.72
   6  -8   9   -1.23    5.68
   6   8  10  871.84   57.21
   6   8  10  948.27   60.23
   6  -8  10  942.22   50.95
   6  -8  11   12.48    5.60
   6   8  11   10.86    9.15
   6   8  11   11.66    8.41
   6   8  12   89.05   15.86
   6   8  12   89.84   15.00
   6   8  12   80.36   10.26
   6  -8  12   85.25   11.52
   6   8  13   12.21    9.42
   6   8  13    1.78    6.85
   6   8  13   -0.91    4.12
   6  -8  13    1.07    4.25
   6   8  14   -1.92    8.08
   6   8  14    4.95    6.16
   6   8  14    0.90    3.87
   6  -8  14   -1.02    4.18
   6   8  15    3.56    7.28
   6   8  15    8.69    4.03
   6  -8  15    3.86    4.94
   6   8  16  899.13   50.15
   6   8  16  796.96   41.33
   6   8  17    4.67    4.32
   6  -8  17   -0.83    3.99
   6   8  17    5.73    6.77
   6  -8  18  260.81   18.42
   6   8  18  294.60   23.35
   6   8  18  291.96   18.71
   6   8  19    4.42    3.67
   6  -8  19   10.40    3.98
   6  -8  20   80.54    7.87
   6   8  20   75.03    7.68
   6   8  21   20.08    3.72
   6   8  22   -1.21    1.60
  -6  10  24    5.53    2.30
  -6  10  23    0.46    2.42
   6 -10 -22   22.78    5.65
   6 -10 -21   -3.40    5.37
   6 -10 -21    3.73    3.34
   6 -10 -20    9.18    4.17
   6 -10 -20   10.82    7.76
   6 -10 -19   -0.77    3.88
   6 -10 -19    8.12    8.31
   6 -10 -18   77.19    9.27
   6 -10 -18   56.27   15.32
   6 -10 -17   36.53   15.34
   6 -10 -16  114.67   24.41
   6 -10 -15  265.39   35.42
   6 -10 -14  109.44   11.34
   6  10 -14  120.24   16.11
   6 -10 -14   95.89   23.05
   6 -10 -13  619.19   49.33
   6  10 -13  524.52   39.24
   6 -10 -13  517.24   30.49
  -6 -10  13  514.04   29.86
   6  10 -12  349.53   31.57
   6 -10 -12  287.97   20.59
  -6 -10  12  330.97   20.75
   6 -10 -12  312.11   20.82
   6 -10 -12  364.73   35.55
  -6 -10  11  305.06   18.68
   6  10 -11  237.40   27.54
   6 -10 -11  267.48   18.71
   6 -10 -11  244.38   17.83
   6 -10 -11  223.15   26.95
   6  10 -11  259.21   20.76
   6 -10 -10   29.01    6.50
   6 -10 -10   41.32   12.69
   6  10 -10   40.21   13.38
  -6 -10  10   40.68    6.54
   6 -10 -10   46.50    6.74
   6  10 -10   31.11    7.47
   6  10  -9   23.25   10.89
   6  10  -9   22.75    6.83
   6 -10  -9   13.95    4.42
   6 -10  -9   17.29    5.32
   6 -10  -9    9.83    8.30
  -6  10   8  792.10   48.07
   6 -10  -8  729.61   39.63
   6 -10  -8  779.54   40.96
   6  10  -8  830.31   56.75
   6  10  -8  777.21   45.41
   6 -10  -7   46.46    7.45
  -6  10   7   42.34    9.56
   6  10  -7   66.97   16.05
   6 -10  -7   50.86    6.85
   6  10  -7   42.87    9.28
   6  10  -6   27.73   12.96
   6 -10  -6   34.93    9.92
   6 -10  -6   32.47    6.72
   6  10  -6   41.08    9.08
   6 -10  -5   38.85    6.63
   6 -10  -5   18.28    7.76
   6  10  -5   49.08   13.88
   6  10  -5   23.42   10.56
   6  10  -5   36.07    9.02
   6 -10  -4   71.82    9.05
   6  10  -4   71.91   14.31
   6  10  -4   76.92   12.18
   6  10  -4   59.71   14.53
   6  10  -3  419.51   35.62
   6  10  -3  379.88   35.36
   6  10  -3  457.78   31.45
   6 -10  -3  443.81   26.50
   6 -10  -2 1986.69   91.43
   6  10  -2 2030.30  104.95
   6 -10  -2 1979.83   91.87
   6  10  -2 1930.39  105.81
   6  10  -2 1856.80   97.24
   6 -10  -1  400.96   24.58
   6 -10  -1  383.08   23.92
   6  10  -1  360.96   27.87
   6  10  -1  449.70   36.48
   6  10  -1  342.51   32.00
   6 -10   0  168.10   14.02
   6  10   0  122.20   18.50
   6  10   0  168.10   21.75
   6 -10   0  148.68   13.09
   6  10   0  160.13   17.10
   6 -10   1    0.86    3.72
   6  10   1    8.31    8.74
   6  10   1    2.78    5.69
   6  10   1    2.24    8.38
   6  10   2    6.25    8.05
   6 -10   2   -1.78    4.11
   6  10   2    8.98    9.19
  -6 -10  -2   -1.28    3.02
   6  10   3  291.64   28.34
   6  10   3  289.34   29.25
   6  10   4  649.82   44.45
   6 -10   4  540.51   33.26
   6  10   4  608.15   44.67
   6 -10   5  556.05   34.76
   6  10   5  653.76   45.42
   6  10   5  682.20   47.16
   6  10   6   59.55   14.05
   6 -10   6   73.40   10.19
  -6 -10  -6   54.96    9.85
   6  10   6   88.98   16.42
   6  10   7   69.78   14.93
   6 -10   7   51.05    9.30
   6  10   7   56.53   13.68
  -6 -10  -7   64.11   10.33
   6  10   8  506.30   37.65
   6 -10   8  418.93   29.46
   6  10   8  507.94   38.85
  -6 -10  -8  403.79   29.82
   6  10   9   14.21    8.78
   6  10  10  384.11   32.52
   6  10  11   31.36   10.27
   6  10  11   21.65    4.62
   6  10  12  699.77   43.11
   6  10  12  706.12   43.20
   6  10  13    1.56    6.58
   6  10  13    0.57    1.91
   6  10  14   -0.52    1.81
   6  10  14   50.08   11.07
   6  10  15   82.67   11.38
   6  10  15    1.37    1.53
   6  10  16   37.30    7.62
   6  10  16    0.38    1.04
   6  10  17  134.27   11.47
   6  10  17   -0.29    0.55
   6 -12 -18    1.02    4.71
   6 -12 -17   89.90   13.95
   6 -12 -16   -1.99    8.99
   6 -12 -16    1.94    2.86
   6 -12 -15  576.59   44.78
   6 -12 -15  548.74   30.29
   6 -12 -14   91.16    9.35
   6 -12 -14   93.57   20.11
   6 -12 -13  210.33   15.33
   6 -12 -13  220.72   29.88
   6 -12 -12   15.35    4.46
   6 -12 -12   32.21   15.75
  -6 -12  11   31.36    6.05
   6 -12 -11   20.63    4.82
   6 -12 -11   26.75    5.57
   6 -12 -11   24.76   13.32
   6 -12 -10    2.54   11.50
   6 -12 -10    0.69    3.20
  -6 -12  10    1.46    3.66
   6  12 -10   -4.38    6.76
   6 -12 -10    3.77    3.71
   6 -12  -9  308.23   20.39
   6 -12  -9  347.51   20.74
   6  12  -9  266.70   26.36
   6 -12  -9  323.23   31.43
  -6 -12   9  307.61   19.97
   6 -12  -8    5.43    4.04
   6 -12  -8    7.38    3.91
  -6 -12   8    2.83    3.35
   6  12  -8    7.99    8.18
   6  12  -7   46.23   13.22
   6 -12  -7   49.33    7.15
   6 -12  -7   43.34    6.78
  -6 -12   7   35.10    6.36
   6 -12  -6   18.86    5.30
   6 -12  -6   16.78    4.87
   6 -12  -6   14.92    9.88
   6  12  -6   16.39   10.14
   6 -12  -5    5.33    3.46
   6 -12  -5   15.40    5.02
   6  12  -5   19.41   11.23
   6 -12  -5   -1.76    6.82
   6 -12  -4   43.97    7.11
   6 -12  -4   54.33    7.99
   6  12  -4   73.62   17.05
   6 -12  -4   48.85   11.11
   6 -12  -3  525.16   35.02
   6 -12  -3  451.32   27.32
   6  12  -3  439.48   39.20
   6 -12  -3  437.20   26.78
   6 -12  -2    4.22    3.91
   6 -12  -2    6.20    6.35
   6 -12  -2    4.01    4.38
   6  12  -2    2.38    8.61
   6  12  -1  445.96   37.18
   6 -12  -1  408.07   25.59
   6 -12  -1  442.10   31.37
   6 -12   0   59.59    8.48
   6  12   0   49.76   13.72
   6 -12   0   81.64   12.37
   6 -12   1   -1.32    4.94
   6 -12   1    3.53    4.00
   6  12   1   13.13    8.96
   6  12   2   44.01   11.65
   6 -12   2   41.45    9.05
   6  12   2   35.93   11.31
   6  12   3  254.38   25.39
   6  12   3  326.78   29.46
  -6 -12  -3  319.77   23.51
   6 -12   3  325.26   23.20
   6 -12   4   36.85    7.45
   6  12   4   26.49    9.28
   6  12   4   33.33   10.96
  -6 -12  -4   36.18    8.32
   6 -12   4   30.54    6.87
  -6 -12  -5 1336.69   69.64
   6  12   5 1451.98   77.23
   6 -12   5 1386.14   68.76
   6  12   5 1360.60   73.58
   6 -12   5 1317.61   66.53
  -6 -12  -6   58.22   10.01
   6  12   6   53.18   11.05
   6  12   6   51.49   12.05
   6 -12   6   42.63    6.71
   6  12   7   73.88   11.44
   6  12   7   83.18   13.53
  -6 -12  -7  107.72   12.59
   6  12   8   21.49    8.55
   6  12   8   18.72    7.18
   6  12   9   40.35    8.67
   6  12   9   54.19   10.65
   6  12  10   25.61    6.87
   6  12  11  196.33   15.85
   6  12  12    4.21    3.39
   6  12  13    0.55    2.77
   6 -14 -10  190.24   26.59
   6 -14  -6   84.33   17.96
   6 -14  -5   -2.00    9.24
  -6 -14   5    1.35    6.50
   6 -14  -4   39.90   11.48
  -6 -14   4   40.28    9.13
  -6 -14   3  165.80   15.98
   6 -14  -3  142.49   17.04
   6 -14  -2   97.81   13.26
  -6 -14   2  110.76   12.41
   6  14  -2   85.20   11.46
   6 -14  -1  146.95   15.03
   6  14  -1  120.15   14.18
   6 -14   0   55.28    8.60
   6  14   0   52.20    9.50
  -6 -14   0   52.55    8.60
   6  14   1   -1.10    4.97
  -6 -14  -1    1.73    4.58
   6 -14   1    4.54    4.32
  -6 -14  -2    4.13    4.30
   6  14   2    3.07    4.84
  -7   1  30    8.17    3.30
  -7  -1  30   10.74    3.26
  -7   1  29    8.38    3.71
  -7  -1  29    7.44    3.60
  -7   1  28  201.33   14.72
  -7   1  27    9.55    4.09
  -7   1  26  255.10   17.95
   7   1 -25   80.55    9.32
  -7   1  25   78.40    9.58
   7  -1 -25   86.69   12.68
  -7   1  25  103.39   10.49
  -7   1  24   15.50    4.81
  -7  -1  24    9.01    3.80
   7  -1 -24    9.34    7.68
   7   1 -24   13.47    4.61
   7  -1 -23  177.52   13.63
  -7  -1  23  188.73   14.59
  -7   1  23  170.95   13.56
   7  -1 -23  195.20   14.58
   7   1 -23  169.15   14.48
  -7   1  23  214.03   15.85
  -7  -1  22  453.14   26.85
  -7   1  22  457.69   26.08
   7  -1 -22  471.46   26.35
   7  -1 -22  463.76   35.21
   7   1 -22  516.85   35.77
   7  -1 -22  464.42   26.99
  -7   1  22  487.84   27.78
  -7  -1  21  142.94   11.79
  -7   1  21  145.17   11.42
   7  -1 -21  135.29   18.28
  -7   1  21  159.80   12.79
   7  -1 -21  129.44   11.48
   7   1 -21  142.55   18.23
   7  -1 -21  144.99   11.59
  -7  -1  20  229.67   15.43
   7  -1 -20  208.65   14.82
   7  -1 -20  234.60   15.71
   7  -1 -20  227.22   23.51
   7   1 -20  219.47   22.62
  -7   1  20  233.88   16.04
  -7   1  20  217.26   14.72
  -7  -1  19  460.82   25.57
   7   1 -19  462.44   34.82
   7  -1 -19  474.59   36.20
  -7   1  19  427.43   24.67
   7  -1 -19  467.48   25.87
   7   1 -19  452.22   23.66
  -7   1  19  480.52   26.16
   7   1 -19  496.28   27.68
   7  -1 -18   23.89    9.31
   7  -1 -18   31.35    5.06
  -7   1  18   33.99    5.00
  -7  -1  18   30.32    4.99
   7   1 -18   30.91    4.00
   7   1 -18   29.40    9.39
  -7   1  18   41.72    5.65
   7   1 -18   20.72    5.19
  -7  -1  17   12.89    3.49
  -7   1  17   16.55    3.48
   7   1 -17   17.04    8.40
   7  -1 -17   10.84    3.67
  -7   1  17   12.85    3.80
   7   1 -17   10.27    3.98
   7  -1 -17   17.87    8.11
  -7   1  16 1123.14   52.42
   7   1 -16 1155.57   64.66
   7  -1 -16 1164.68   52.97
  -7   1  16 1098.15   52.99
   7   1 -16 1121.53   55.25
   7  -1 -16 1129.14   65.17
   7   1 -15   96.40    6.73
   7  -1 -15  107.62    7.99
   7   1 -15   96.35    9.37
   7   1 -14 1276.15   61.75
   7  -1 -14 1370.39   58.95
   7   1 -14 1243.05   57.34
   7  -1 -14 1323.44   62.35
   7   1 -13    0.63    1.44
   7  -1 -13    0.97    1.83
   7   1 -13    3.81    3.52
   7  -1 -13    0.67    3.34
   7  -1 -12  402.30   19.79
   7  -1 -12  408.18   19.79
   7   1 -12  373.29   18.56
   7   1 -12  411.11   23.02
   7  -1 -12  403.38   23.39
   7   1 -11   60.81    4.05
   7  -1 -11   58.94    4.81
   7  -1 -11   63.02    4.94
   7  -1 -11   71.87    8.13
   7  -1 -10  619.18   28.90
   7   1 -10  640.78   32.31
   7   1 -10  597.96   27.69
   7  -1 -10  621.14   28.71
   7  -1 -10  687.33   33.82
   7  -1  -9  585.11   26.12
   7  -1  -9  557.39   26.12
   7   1  -9  540.36   24.98
   7   1  -9  561.28   29.34
   7  -1  -8 1967.49   83.38
   7   1  -8 1955.30   86.90
   7   1  -8 1939.34   82.45
   7   1  -8 1859.73   83.54
   7  -1  -8 1857.54   83.45
   7  -1  -7   37.48    3.40
   7  -1  -7   36.56    3.49
   7   1  -7   36.94    2.66
   7   1  -7   35.67    3.40
   7  -1  -7   38.68    7.55
   7   1  -6  418.30   19.50
   7  -1  -6  448.34   20.47
   7  -1  -6  445.76   20.55
   7  -1  -6  424.05   25.84
   7   1  -5    0.81    3.18
   7  -1  -5    2.18    1.53
   7  -1  -5    3.30    1.76
   7  -1  -5    5.29    5.68
   7  -1  -4  420.29   23.46
   7   1  -4  417.55   21.64
   7  -1  -4  413.64   19.61
   7   1  -3  518.95   25.81
   7  -1  -3  532.36   26.77
   7   1  -2  697.77   32.32
   7   1  -2  718.48   32.81
   7  -1  -2  693.16   32.88
   7   1  -2  740.43   33.59
   7   1  -1  254.46   13.03
   7   1  -1  249.33   12.42
   7  -1  -1  213.73   11.53
   7   1  -1  256.28   13.14
   7   1   0  118.69    7.44
   7   1   0  124.14    7.74
   7   1   0  116.84    7.96
   7   1   1   82.56    5.99
   7   1   1   87.39    5.88
   7   1   2  793.26   39.09
   7   1   2  903.34   38.61
   7   1   3  208.97   11.95
   7   1   4 1532.57   68.58
   7  -1   5  420.47   21.69
   7   1   5  415.97   21.29
   7   1   5  394.14   21.37
   7   1   6  499.81   25.18
   7   1   6  471.21   24.73
   7   1   7  368.15   20.41
   7   1   7  371.75   20.28
   7   1   8   38.70    5.47
   7   1   8   55.24    5.98
   7   1   9   55.43    6.10
   7   1   9   46.98    6.19
   7   1  10  688.77   31.02
   7   1  10  469.44   29.90
   7  -1  10  454.98   29.39
   7   1  10  638.45   30.53
   7   1  10  609.06   31.66
   7   1  11  216.19   16.89
   7   1  11  270.65   16.65
   7   1  11  237.54   15.82
   7  -1  11  225.27   17.51
   7   1  11  236.99   17.14
   7  -1  11  263.00   17.51
   7   1  12  135.36   12.82
   7   1  12  144.80   11.54
   7  -1  12  127.08   12.29
   7   1  12  141.35   15.30
   7   1  12  117.42   11.76
   7   1  12  131.65   10.89
   7   1  12  131.13   11.54
   7  -1  12  127.78   11.94
   7   1  13    6.96    3.80
   7   1  13    9.75    6.33
   7  -1  13    0.90    3.49
   7   1  13    0.71    3.50
   7   1  13    1.75    3.68
   7   1  13    2.90    2.98
   7  -1  13    0.84    3.78
   7   1  14   16.60    4.85
   7   1  14   21.01    4.93
   7   1  14   22.23    5.79
   7  -1  14   20.13    5.67
   7   1  14   22.68    5.12
   7  -1  14   13.09    5.17
   7   1  14   34.51    7.85
   7   1  15   -0.79    3.41
   7   1  15    2.47    5.34
   7   1  15   -0.77    3.22
   7  -1  15   -0.96    4.04
   7   1  15   -0.98    4.10
   7  -1  15    4.55    3.83
   7   1  15    0.78    3.18
   7   1  16    2.39    3.53
   7   1  16    4.92    5.82
   7   1  16    5.77    4.72
   7  -1  16   12.73    5.01
   7   1  16   10.14    5.37
   7   1  16    7.08    4.03
   7  -1  16    3.74    4.34
   7   1  17   48.46    7.84
   7  -1  17   49.41    8.24
   7   1  17   40.40    8.07
   7   1  17   50.44    7.60
   7   1  17   50.90    7.26
   7  -1  17   48.30    7.97
   7  -1  18   10.33    4.62
   7   1  18    2.56    4.51
   7  -1  18    1.95    4.50
   7   1  18    2.07    5.00
   7   1  18    0.82    3.44
   7   1  18    0.76    3.36
   7  -1  19  161.63   14.20
   7   1  19  108.62   11.69
   7   1  19  156.07   13.41
   7   1  19  151.16   14.14
   7   1  19  157.25   12.65
   7  -1  19  161.77   13.86
   7  -1  20   98.88   11.05
   7   1  20  102.36   10.52
   7   1  20   97.19   11.03
   7   1  20   86.33    8.84
   7  -1  20   80.98    9.88
   7   1  21   18.10    5.01
   7  -1  21   22.34    5.32
   7  -1  21   13.45    4.78
   7   1  21   21.31    4.88
   7   1  21   24.41    6.29
   7  -1  22   10.96    3.98
   7   1  22    6.91    3.87
   7   1  22   10.28    4.02
   7  -1  22    6.64    3.70
   7   1  23   26.51    4.57
   7  -1  23   21.37    4.49
   7   1  23   23.41    5.31
   7  -1  24   10.28    3.02
   7   1  24   13.06    3.77
   7   1  24   11.66    3.30
   7  -1  24   12.85    3.88
   7  -1  25   29.04    3.89
   7   1  25   35.14    4.52
   7   1  25   30.00    3.96
  -7  -3  31    0.35    1.94
  -7  -3  30    2.96    2.61
  -7  -3  29   49.55    5.99
  -7   3  29   55.95    6.24
  -7  -3  29   51.62    6.61
  -7  -3  28  157.91   11.77
  -7   3  28  148.82   11.64
  -7   3  28  150.04   11.78
   7  -3 -27  134.89   13.99
  -7   3  27  136.05   12.05
  -7   3  27  150.79   11.85
  -7  -3  27  136.91   11.26
  -7  -3  26   21.88    5.09
   7  -3 -26   28.50    7.73
  -7   3  26   25.25    5.47
  -7   3  25   18.56    5.33
  -7  -3  25   18.04    5.04
   7  -3 -25   21.45    7.97
  -7  -3  24  105.71   10.57
  -7  -3  24   98.47   10.38
   7  -3 -24   80.50   13.63
  -7   3  24  105.08   10.32
   7   3 -24   93.88   10.13
   7  -3 -24  100.74   10.08
  -7  -3  24   98.24    9.96
  -7   3  24   84.03    9.75
  -7  -3  23   91.71    9.72
  -7  -3  23   66.64    8.36
   7  -3 -23   65.38    8.59
   7  -3 -23   85.46   14.75
  -7   3  23   93.45    9.82
  -7  -3  22    2.30    3.23
  -7  -3  22   -1.48    4.10
   7  -3 -22    1.94    7.72
   7  -3 -22   -0.78    3.30
  -7   3  22    0.76    3.75
  -7  -3  21  628.44   33.86
   7  -3 -21  577.88   33.65
   7  -3 -21  602.53   44.47
  -7  -3  21  613.08   33.54
  -7   3  21  634.36   33.77
   7   3 -21  650.07   34.50
  -7   3  20   38.56    6.63
  -7  -3  20   53.10    7.18
   7  -3 -20   42.35   12.30
   7  -3 -20   34.38    6.22
  -7  -3  20   47.66    6.76
   7   3 -20   42.35    6.79
  -7  -3  19  231.58   16.28
  -7  -3  19  249.51   16.18
   7  -3 -19  291.12   29.50
  -7   3  19  251.45   16.48
   7  -3 -19  241.35   16.47
   7   3 -19  212.71   16.46
  -7   3  18   84.47    8.36
  -7  -3  18   85.22    8.58
   7  -3 -18   83.90    8.52
   7  -3 -18   80.08   16.95
  -7  -3  18   81.89    8.41
   7   3 -18   95.69    9.74
  -7  -3  17   11.75    3.82
   7  -3 -17   13.64    3.20
   7  -3 -17   20.91    4.53
   7  -3 -17    7.88    9.85
  -7   3  17   18.61    3.29
   7   3 -17   25.85    5.18
  -7   3  17   17.85    4.15
  -7  -3  17    9.82    3.52
  -7   3  16   36.65    4.31
  -7  -3  16   36.85    5.18
   7  -3 -16   26.85    4.81
  -7  -3  16   36.37    5.21
   7  -3 -16   38.28    4.62
   7  -3 -16   38.11   14.23
  -7   3  16   37.14    5.25
   7   3 -16   31.67    5.79
  -7   3  15  934.13   41.48
  -7  -3  15  863.80   42.52
  -7   3  15  872.89   42.63
   7  -3 -15  844.09   61.84
   7  -3 -15  879.31   41.71
   7  -3 -15  914.84   42.95
   7   3 -15  877.93   45.09
   7  -3 -14 1112.91   52.76
   7  -3 -14 1186.21   52.03
   7   3 -14 1085.87   55.26
   7  -3 -13  963.50   43.82
   7  -3 -13  952.08   44.73
   7   3 -13  940.04   47.42
   7  -3 -12    2.59    1.56
   7  -3 -12    2.91    2.14
   7  -3 -11   78.31    6.32
   7  -3 -11   84.02    5.97
   7   3 -11   80.83    8.39
   7  -3 -10   13.01    2.45
   7   3 -10    8.49    3.83
   7   3  -9  144.15   11.39
   7   3  -8  369.71   21.49
   7   3  -7  605.63   31.82
   7   3  -7  626.38   28.90
   7   3  -6   81.84    5.75
   7  -3  -6   88.39    6.25
   7   3  -6   86.91    8.17
   7  -3  -5 1109.30   50.25
   7   3  -5 1124.93   49.61
   7   3  -4  345.16   16.65
   7  -3  -4  341.61   17.26
   7  -3  -3 3337.28  142.34
   7   3  -3 3270.87  142.29
   7  -3  -3 3311.35  142.33
   7   3  -3 3109.29  143.98
   7   3  -3 3351.16  141.51
   7  -3  -2    3.98    2.11
   7  -3  -2    5.62    2.26
   7   3  -2    6.43    2.27
   7   3  -2    2.85    2.95
   7  -3  -1 4248.82  181.31
   7  -3  -1 4197.74  180.64
   7   3  -1 4270.11  180.63
   7   3  -1 4261.37  181.93
   7  -3  -1 4050.00  181.48
   7   3   0  248.33   13.47
   7  -3   0  276.33   13.75
   7  -3   1  428.39   20.76
   7   3   1  417.08   20.63
   7  -3   2  438.84   21.47
   7   3   2  450.71   21.59
   7  -3   2  408.91   22.74
   7  -3   3  262.05   14.25
   7   3   3  258.97   14.16
   7   3   4   85.65    6.56
   7  -3   4   72.74    6.45
   7  -3   4   70.50    6.02
   7  -3   4   74.21    6.12
   7   3   5   34.14    4.63
   7  -3   5   37.60    4.81
   7  -3   5   40.71    4.60
   7   3   5   47.48    4.82
   7   3   6  167.02   10.96
   7  -3   6  191.82   12.01
   7   3   6  159.53   11.20
   7  -3   6  168.76   11.13
   7   3   7   30.90    4.57
   7  -3   7   33.47    4.86
   7   3   7   28.47    4.24
   7  -3   7   32.04    4.50
   7   3   8    9.70    2.91
   7  -3   8    5.38    2.91
   7   3   8    6.20    3.47
   7  -3   8    9.53    3.15
   7  -3   9  972.64   46.43
   7   3   9  987.71   46.39
   7  -3   9  945.82   45.89
   7   3   9  881.04   46.92
   7   3   9  950.69   45.81
   7  -3   9  949.21   48.28
   7  -3  10  366.29   22.62
   7   3  10  360.73   26.21
   7   3  10  395.86   21.32
   7  -3  10  366.43   20.59
   7  -3  10  333.58   22.86
   7  -3  10  372.79   21.04
   7   3  10  318.36   21.39
   7   3  10  389.34   20.82
   7  -3  11  412.58   23.20
   7   3  11  401.80   23.05
   7   3  11  374.86   28.23
   7   3  11  372.65   26.75
   7  -3  11  399.33   22.69
   7  -3  11  385.18   25.16
   7   3  11  338.57   21.99
   7   3  11  369.63   23.96
   7   3  12    1.40    5.22
   7  -3  12    1.31    3.28
   7   3  12    1.14    4.53
   7  -3  12    0.62    2.81
   7   3  12    1.92    2.77
   7  -3  12   -0.91    3.51
   7   3  12    6.07    3.56
   7  -3  13  157.55   13.75
   7  -3  13  144.32   11.76
   7   3  13  146.87   12.03
   7   3  13  123.07   15.31
   7   3  13  140.56   11.41
   7  -3  13  113.04   10.54
   7  -3  14  176.64   13.51
   7   3  14  193.45   14.31
   7   3  14  190.67   19.34
   7   3  14  159.17   12.96
   7  -3  14  172.85   14.94
   7  -3  14  156.67   12.83
   7  -3  14  165.42   15.01
   7   3  15   25.23    5.57
   7  -3  15   31.36    7.31
   7  -3  15   21.76    5.17
   7  -3  15   20.67    5.33
   7   3  15   22.19    8.86
   7  -3  15   21.62    5.83
   7   3  15   27.59    5.43
   7   3  15   24.13    6.44
   7   3  16   27.31    5.88
   7   3  16   17.44    7.50
   7  -3  16   28.02    6.46
   7  -3  16   26.63    5.53
   7   3  16   29.20    6.83
   7   3  16   23.08    5.29
   7  -3  16   20.44    5.47
   7  -3  16   24.96    6.89
   7   3  17  261.84   22.08
   7   3  17  230.75   16.87
   7  -3  17  242.46   18.03
   7   3  17  269.61   19.88
   7  -3  17  220.64   16.48
   7  -3  17  268.11   19.74
   7  -3  17  214.33   16.16
   7   3  17  213.87   16.23
   7   3  18   25.37    8.39
   7   3  18   23.30    5.57
   7  -3  18   15.65    5.10
   7  -3  18   26.82    5.59
   7   3  18   12.54    4.23
   7   3  18   23.25    6.81
   7  -3  18   19.61    4.87
   7  -3  18   14.57    5.74
   7  -3  19   26.68    5.90
   7   3  19   39.90    6.50
   7  -3  19   39.68    6.74
   7   3  19   45.17    7.00
   7  -3  19   48.36    6.54
   7  -3  19   44.14    8.00
   7  -3  20    7.12    3.89
   7   3  20    2.51    3.32
   7  -3  20   -0.94    4.24
   7  -3  20   -0.72    3.40
   7  -3  20   -0.86    3.62
   7  -3  20    6.30    3.44
   7   3  20    0.96    4.34
   7  -3  21   14.52    4.03
   7   3  21   10.94    3.63
   7  -3  21    7.34    3.47
   7  -3  21   15.07    4.56
   7  -3  21    8.44    4.18
   7   3  21    7.84    4.92
   7   3  22   65.42    6.75
   7  -3  22   54.97    7.12
   7   3  22   56.51    7.60
   7  -3  22   49.50    6.21
   7  -3  22   56.29    7.68
   7  -3  23   11.85    3.63
   7   3  23   24.46    5.01
   7  -3  23   18.05    3.85
   7   3  23    9.16    3.27
   7  -3  23   22.31    4.70
   7  -3  24   74.73    6.41
   7   3  24   77.35    7.52
   7   3  25   13.94    3.14
  -7  -5  30   31.95    4.42
  -7   5  29    0.83    2.23
  -7   5  28   43.20    5.82
   7  -5 -27   28.23    6.48
  -7   5  27   34.27    6.40
  -7  -5  27   31.99    4.61
   7  -5 -26    4.63    4.87
  -7  -5  26    1.57    3.02
   7  -5 -25    5.55    6.01
  -7   5  25   10.94    3.53
  -7  -5  25   12.75    4.02
  -7  -5  24    1.86    3.11
  -7   5  24    2.94    3.21
   7  -5 -24    1.61    6.39
   7  -5 -23  699.00   45.94
  -7   5  23  658.52   34.95
  -7  -5  23  695.06   35.57
  -7  -5  22   18.67    4.67
  -7  -5  22   23.80    5.26
   7  -5 -22   20.67    5.55
  -7   5  22   15.77    4.03
  -7  -5  22   21.12    4.75
   7  -5 -22   18.41    9.71
  -7  -5  21 2179.20   96.43
  -7  -5  21 2045.20   96.60
  -7   5  21 2073.22   95.78
  -7  -5  21 2052.61   97.37
   7  -5 -21 2104.99  112.27
   7  -5 -21 2172.57   99.10
   7  -5 -20  136.00   21.20
  -7  -5  20  154.45   12.45
   7  -5 -20  109.59   11.72
   7   5 -20  119.42   11.95
  -7   5  20  118.39   10.57
  -7  -5  20  145.03   11.32
   7  -5 -19  838.30   60.47
  -7  -5  19  826.14   43.75
  -7   5  19  864.96   42.53
   7  -5 -19  864.30   45.08
   7   5 -19  812.63   44.63
  -7  -5  19  891.86   42.97
  -7  -5  18  140.23   11.54
   7  -5 -18  101.47   20.87
   7  -5 -18  134.49   11.92
   7   5 -18  105.21   11.45
  -7  -5  18  146.17   10.91
  -7   5  18  117.84   10.08
  -7   5  17    4.33    2.77
  -7  -5  17    7.26    3.15
  -7  -5  17    4.73    3.46
   7  -5 -17    3.11   11.25
   7   5 -17    4.30    3.53
  -7   5  16    0.50    2.66
  -7  -5  16    3.63    2.83
   7   5 -16    4.23    4.09
  -7  -5  16    1.91    3.01
   7  -5 -16   -6.18   12.99
  -7  -5  15  344.74   20.64
  -7   5  15  336.05   24.21
   7  -5 -15  396.17   38.33
  -7   5  15  365.53   19.75
  -7  -5  15  371.27   19.94
   7   5 -15  314.97   22.04
  -7   5  14  278.07   21.37
  -7   5  14  327.10   17.73
  -7  -5  14  317.33   17.69
   7  -5 -14  350.32   33.47
  -7  -5  14  315.19   18.65
   7   5 -14  301.71   20.56
  -7  -5  13   67.12    6.73
   7  -5 -13   56.10    6.31
   7  -5 -13   80.16   15.71
  -7   5  13   47.31    7.96
  -7  -5  13   57.55    5.80
   7   5 -13   62.52    8.21
  -7  -5  12   36.46    5.00
   7  -5 -12   31.78    4.70
   7  -5 -12   43.12   10.91
   7   5 -12   30.94    6.33
  -7  -5  12   28.44    3.89
  -7  -5  11  505.91   25.31
   7   5 -11  526.22   30.10
   7  -5 -11  547.82   27.00
   7  -5 -11  490.81   35.06
   7   5 -10   94.58   10.12
   7  -5 -10  109.30    8.37
   7  -5  -9 1551.39   70.07
   7   5  -9 1535.05   73.91
   7  -5  -8  285.50   15.76
   7   5  -8  245.34   18.34
   7  -5  -7 1214.51   54.57
   7   5  -7 1166.42   53.18
   7   5  -7 1179.90   58.19
   7  -5  -6  256.65   13.32
   7   5  -6  236.76   12.97
   7  -5  -6  240.75   14.14
   7   5  -6  249.04   13.09
   7   5  -6  249.84   17.24
   7  -5  -5   27.90    3.43
   7   5  -5   32.40    3.23
   7   5  -5   22.67    5.32
   7   5  -5   29.10    3.44
   7  -5  -5   27.86    3.92
   7  -5  -4  105.85    7.32
   7   5  -4  112.00    7.46
   7  -5  -4  111.40    7.98
   7   5  -4  109.88    6.75
   7  -5  -3  674.00   32.17
   7   5  -3  667.11   30.52
   7  -5  -2  164.38   10.81
   7  -5  -2  181.23   10.92
   7  -5  -1  746.51   35.61
   7  -5  -1  733.79   35.79
   7  -5  -1  753.47   35.67
   7  -5   0  160.25   10.77
   7  -5   0  167.58   10.80
   7  -5   1    2.26    2.62
   7  -5   1    0.43    2.37
   7  -5   2  613.93   28.58
   7   5   2  594.10   28.31
   7  -5   2  594.05   30.60
   7  -5   3  873.51   39.97
   7  -5   3  941.79   42.91
   7   5   3  817.92   39.54
   7  -5   4   62.58    5.38
   7   5   4   47.15    4.86
   7  -5   5 1191.25   53.30
   7   5   5 1088.92   52.62
   7  -5   5 1283.13   57.40
   7  -5   5 1145.01   53.15
   7   5   6  288.51   22.30
   7   5   6  294.15   16.97
   7  -5   6  309.35   17.47
   7  -5   6  341.30   21.38
   7  -5   6  328.58   17.72
   7  -5   6  322.30   23.57
   7  -5   6  321.79   20.91
   7  -5   7   88.48    7.78
   7   5   7   93.56    7.56
   7  -5   7   88.54   10.60
   7   5   7   78.37   11.02
   7  -5   7   95.25    8.00
   7  -5   7   90.19   12.81
   7  -5   7   76.24    9.32
   7  -5   8    7.10    2.86
   7  -5   8    3.13    2.52
   7   5   8    3.22    2.35
   7   5   8    2.37    2.29
   7   5   8    3.51    4.52
   7  -5   8    2.57    3.89
   7  -5   8    5.77    6.23
   7  -5   8   11.79    6.13
   7  -5   9  134.94   10.29
   7   5   9  117.61    9.34
   7   5   9  120.42   13.92
   7  -5   9  125.28   10.00
   7  -5   9  104.00   13.63
   7   5   9  108.04    9.25
   7   5   9  108.80   14.43
   7  -5   9   96.09   14.65
   7  -5   9  132.50   12.37
   7   5  10   47.76    9.99
   7   5  10   48.20    6.11
   7   5  10   43.80    8.78
   7  -5  10   53.89    6.71
   7  -5  10   54.62    6.59
   7   5  10   46.45    6.07
   7  -5  10   45.52    9.54
   7  -5  10   49.91   11.32
   7  -5  10   55.40    8.31
   7  -5  11   24.69    4.95
   7  -5  11   22.41    5.99
   7   5  11   23.05    4.64
   7  -5  11   18.64    8.86
   7   5  11   20.11    7.53
   7   5  11   22.80    7.04
   7  -5  11   22.79    5.13
   7  -5  11   15.71    6.27
   7  -5  11   29.07    4.89
   7   5  11   27.12    4.64
   7  -5  12    4.57    2.82
   7  -5  12    0.71    3.49
   7   5  12    1.24    2.67
   7   5  12   -1.59    5.93
   7   5  12    1.38    5.48
   7  -5  12    1.29    4.82
   7  -5  12    1.24    3.18
   7   5  12   -0.59    2.96
   7   5  12   -1.92    4.45
   7  -5  12   -1.67    7.01
   7  -5  12    3.84    4.35
   7  -5  13  189.34   13.76
   7   5  13  168.95   17.75
   7   5  13  183.57   13.57
   7   5  13  184.99   19.67
   7   5  13  186.26   16.19
   7  -5  13  189.59   13.51
   7   5  13  194.50   13.41
   7  -5  13  202.84   18.03
   7  -5  13  154.90   14.99
   7  -5  13  197.29   20.26
   7   5  14   20.34    4.79
   7  -5  14   22.09    4.72
   7   5  14   28.96    9.11
   7  -5  14   29.83    5.40
   7  -5  14   26.66    8.64
   7   5  14   32.03    7.26
   7  -5  14   16.18    5.78
   7  -5  15  479.01   31.61
   7  -5  15  420.63   25.02
   7   5  15  416.14   32.07
   7   5  15  433.14   24.70
   7  -5  15  453.61   25.07
   7   5  15  491.74   29.37
   7  -5  15  410.80   27.75
   7   5  16   51.91   11.28
   7  -5  16   37.79    6.03
   7  -5  16   57.15    9.86
   7  -5  16   48.13    6.38
   7   5  16   49.38    6.38
   7   5  16   47.51    8.43
   7  -5  16   30.07    7.32
   7  -5  17  421.63   24.27
   7   5  17  474.59   32.34
   7   5  17  439.77   24.35
   7  -5  17  459.92   28.87
   7  -5  17  416.14   27.84
   7  -5  18   56.81    9.25
   7   5  18   83.12   12.25
   7   5  18   61.15    6.96
   7  -5  18   68.55    7.35
   7  -5  18   71.94    9.53
   7   5  19  144.92   15.11
   7  -5  19  116.20    9.76
   7  -5  19  131.24   12.00
   7   5  19  123.76    9.64
   7  -5  20   25.07    5.26
   7  -5  20   20.89    4.04
   7  -5  21   90.50    7.55
   7  -5  21   87.16    8.19
   7   5  22    7.09    3.80
   7   5  23  106.25    8.89
   7  -5  23   91.01    8.31
   7   5  24    0.80    2.41
  -7  -7  28  229.25   13.92
  -7   7  28  220.22   13.47
  -7   7  27   51.50    6.45
  -7  -7  27   50.85    6.42
   7  -7 -26  512.23   31.10
  -7  -7  26  599.47   30.53
   7  -7 -25   98.04   12.15
   7  -7 -24  128.38   15.57
   7  -7 -23   20.15    9.21
   7  -7 -22    9.95    9.22
   7  -7 -21    2.33    8.10
   7   7 -20   13.46    4.43
   7   7 -20   21.68    9.08
   7  -7 -20    8.01   11.25
  -7  -7  19    2.30    3.62
   7   7 -19    6.27    8.31
   7  -7 -19    3.00   10.82
   7  -7 -19   -1.01    3.89
   7   7 -19    3.13    3.62
  -7  -7  18   64.41    8.15
   7   7 -18   79.75   16.42
   7  -7 -18   79.16   10.05
   7  -7 -18   61.51   17.64
   7   7 -18   64.01    9.00
  -7  -7  17  173.25   13.92
   7   7 -17  193.26   16.05
   7  -7 -17  207.42   16.20
   7  -7 -16 1660.08   78.51
  -7  -7  16 1638.73   76.55
   7  -7 -16 1550.97   98.40
   7   7 -16 1599.98   79.11
   7  -7 -15  501.30   28.84
  -7  -7  15  467.03   27.02
  -7   7  15  457.58   31.67
   7  -7 -15  516.64   45.55
   7   7 -15  516.98   30.44
  -7  -7  14 1144.54   55.47
  -7   7  14 1187.37   61.07
   7  -7 -14 1210.74   57.22
   7  -7 -14 1174.66   73.83
   7   7 -14 1059.81   58.33
  -7  -7  13  291.61   18.44
  -7   7  13  289.07   22.12
   7   7 -13  345.49   33.21
   7  -7 -13  331.12   20.10
   7  -7 -13  318.81   30.92
   7   7 -13  302.54   21.81
   7   7 -12 1394.87   62.52
  -7  -7  12 1326.98   62.83
  -7  -7  12 1296.94   61.97
   7   7 -12 1304.42   79.42
   7   7 -12 1310.53   67.12
   7  -7 -12 1364.15   76.73
   7  -7 -12 1395.90   64.57
   7  -7 -11   30.78    5.51
  -7  -7  11   32.58    4.83
   7   7 -11   38.14   12.02
   7   7 -11   47.84    8.13
   7   7 -11   39.59    5.04
   7  -7 -11   39.01   10.34
  -7  -7  10  205.94   13.45
   7   7 -10  202.54   17.23
   7  -7 -10  249.10   15.35
  -7   7  10  213.58   19.28
   7   7 -10  220.87   13.22
  -7  -7   9  187.18   12.17
   7   7  -9  197.63   11.88
  -7   7   9  162.15   16.55
   7   7  -9  227.60   22.85
   7  -7  -9  193.05   13.41
   7   7  -9  193.40   16.44
  -7  -7   8  546.55   28.33
   7   7  -8  592.47   39.77
  -7   7   8  483.08   33.45
   7  -7  -8  642.71   36.83
   7  -7  -8  625.37   30.52
   7   7  -8  550.62   33.85
   7   7  -8  579.99   27.92
  -7  -7   7   57.72    5.55
   7   7  -7   53.16    4.94
   7  -7  -7   55.53    9.33
   7   7  -7   69.89    9.24
   7  -7  -7   48.13    6.20
  -7   7   7   58.59    8.88
   7   7  -7   60.76   11.59
  -7  -7   6   17.85    3.02
   7   7  -6   17.99    2.69
   7  -7  -6   12.07    3.55
   7   7  -6   20.82    7.90
   7   7  -6   20.60    5.96
   7  -7  -6   21.31    4.05
   7   7  -5   30.39    9.19
   7  -7  -5   40.67    5.42
   7  -7  -5   36.61    5.00
   7   7  -5   39.47    7.25
   7  -7  -4  303.57   18.01
   7  -7  -4  350.15   19.02
   7   7  -4  296.31   21.44
   7   7  -4  293.29   24.82
   7   7  -3  882.13   46.43
   7   7  -3  916.20   51.53
   7  -7  -3  821.10   42.43
   7  -7  -3  899.56   42.22
   7  -7  -2 1438.40   68.19
   7   7  -2 1494.94   78.09
   7  -7  -2 1540.60   69.08
   7   7  -1  483.55   33.70
   7  -7  -1  480.01   26.07
   7  -7   0   16.89    4.02
   7   7   0   23.58    7.80
   7  -7   0   27.28    4.79
   7   7   1    6.22    6.19
   7   7   1    3.23    6.96
   7  -7   1    2.46    3.08
   7  -7   1    1.79    3.05
   7   7   2   -1.66    6.00
   7  -7   2    2.63    2.97
   7   7   3  153.87   18.34
   7  -7   3  146.11   12.43
   7   7   4  631.85   41.36
   7   7   4  643.94   40.75
   7  -7   4  532.50   32.58
   7  -7   5   48.39    7.25
   7   7   5   39.84   10.63
   7   7   5   41.48    9.89
   7  -7   5   34.25    7.02
   7   7   6  115.67   16.74
   7  -7   6   77.95    9.95
   7  -7   6   93.34   11.13
   7   7   6   91.87   14.20
   7  -7   7   33.57    7.51
   7   7   7   32.09    9.48
   7  -7   7   40.41    8.13
   7   7   7   36.37   10.05
   7  -7   7   28.88    8.94
   7   7   8  163.17   18.80
   7   7   8  140.89   19.50
   7  -7   8  169.06   16.27
   7  -7   8  193.64   16.80
   7  -7   8  175.90   19.42
   7  -7   9  121.97   17.63
   7   7   9  145.58   19.08
   7   7   9  153.95   18.50
   7  -7   9  136.38   14.40
   7   7  10  454.73   35.04
   7  -7  10  356.75   31.59
   7  -7  10  424.70   27.76
   7   7  10  384.66   31.02
   7   7  11  329.17   29.73
   7   7  11  319.42   27.64
   7   7  11  334.62   22.57
   7  -7  11  290.62   27.73
   7  -7  11  326.05   23.77
   7  -7  12  852.46   55.96
   7  -7  12 1014.56   52.24
   7   7  12 1002.07   60.27
   7   7  12  918.50   56.24
   7   7  12  976.78   50.66
   7  -7  13   16.02    7.74
   7   7  13    3.21    6.01
   7   7  13    4.82    4.17
   7  -7  13    5.37    4.86
   7  -7  14   49.83   10.30
   7   7  14   48.57   10.36
   7   7  14   50.85    8.12
   7  -7  14   45.94    8.32
   7  -7  15   -3.48    5.49
   7  -7  15    9.06    4.95
   7   7  15    9.40    4.80
   7   7  16   97.16   10.69
   7  -7  16   87.28   10.54
   7   7  17    3.43    3.52
   7  -7  17    0.90    4.07
   7   7  18    3.17    3.43
   7   7  18    1.25    5.78
   7  -7  18   -0.83    4.14
   7   7  19   22.68    6.94
   7   7  19   13.55    4.40
   7  -7  19   13.29    4.44
   7   7  20  182.08   13.60
   7  -7  20  206.52   14.35
   7  -7  21   90.99    8.28
   7   7  21   96.45    8.49
   7   7  22  232.64   13.79
  -7   9  26   34.89    4.19
  -7   9  25    1.47    2.75
  -7  -9  25    0.35    1.75
   7  -9 -24    7.98    4.17
  -7  -9  24   13.21    3.59
   7  -9 -23  285.91   17.17
   7  -9 -23  241.74   20.27
  -7  -9  23  283.16   17.45
   7  -9 -22  412.33   23.95
   7  -9 -22  392.26   29.70
  -7  -9  22  427.56   24.32
   7  -9 -21   11.80    4.36
   7  -9 -21    9.08    7.25
  -7  -9  21   15.37    4.87
   7  -9 -20  654.99   35.85
   7  -9 -20  662.85   47.83
  -7  -9  20  643.89   35.57
   7  -9 -19  155.55   13.74
   7  -9 -19  145.13   23.30
   7  -9 -18   29.49    6.71
   7  -9 -18   52.19   18.41
   7  -9 -17    1.81    3.80
   7  -9 -17   -3.59   12.49
   7   9 -17    3.37    6.52
   7  -9 -16  237.60   17.87
   7   9 -16  256.67   25.41
   7  -9 -16  180.75   30.56
   7  -9 -15   -0.88    3.27
   7  -9 -15   -0.88    4.25
   7   9 -15   -2.24    7.79
   7  -9 -15   -7.07   14.48
   7   9 -15    0.98    3.41
   7   9 -14  292.22   21.93
   7   9 -14  324.67   32.00
   7  -9 -14  308.76   20.76
   7  -9 -14  333.24   36.73
   7   9 -13   18.15   10.65
   7   9 -13   20.54    6.14
   7  -9 -13   18.81    5.12
   7  -9 -13   17.26   13.05
   7  -9 -12   46.66    7.07
   7   9 -12   31.83   13.47
   7   9 -12   47.24    8.54
  -7  -9  12   58.96    7.17
   7  -9 -12   60.79   15.99
   7   9 -11   26.37   13.01
  -7  -9  11   19.02    4.79
   7  -9 -11   22.21    5.16
   7  -9 -11   44.52   13.28
   7   9 -11   24.50    7.27
   7   9 -10 1014.89   56.48
   7  -9 -10 1066.38   52.63
   7  -9 -10 1060.96   53.03
   7   9 -10 1086.78   69.14
   7  -9  -9  182.06   14.03
   7  -9  -9  202.65   14.82
   7   9  -9  230.79   26.70
   7  -9  -8 1861.24   84.41
   7  -9  -8 1915.37   85.39
   7   9  -8 1879.99  100.98
  -7   9   8 1565.70   89.37
   7   9  -8 1763.15   89.58
   7   9  -7   20.89    7.18
   7  -9  -7   16.64    5.29
   7   9  -7   25.05   10.80
   7  -9  -7   23.97    5.07
   7  -9  -7   18.03    8.12
   7   9  -6  773.38   52.36
   7  -9  -6  766.61   39.89
   7  -9  -6  696.22   38.54
   7  -9  -6  824.80   46.69
   7   9  -6  816.82   45.60
   7  -9  -5   57.37    7.52
   7   9  -5   55.20   12.82
   7  -9  -5   51.30    6.81
   7   9  -5   42.40    9.65
   7  -9  -4    0.74    3.72
   7   9  -4    2.00    6.95
   7  -9  -4    3.90    3.01
   7   9  -4    2.63    5.39
   7   9  -4   -2.08    7.49
   7   9  -3  313.84   28.18
   7  -9  -3  285.07   18.94
   7   9  -3  260.91   26.66
   7   9  -3  280.00   22.89
   7  -9  -2   79.37    8.87
   7  -9  -2   76.05    8.43
   7   9  -2  104.05   16.08
   7   9  -2   74.84   14.33
   7   9  -2   58.25   10.72
   7  -9  -1   80.69    9.05
   7   9  -1   73.06   14.50
   7  -9  -1   70.81    8.30
   7   9  -1   81.94   14.76
   7   9  -1   83.14   11.84
   7   9   0   33.79   10.71
   7  -9   0   63.33    8.11
   7   9   0   30.88   11.26
   7  -9   0   51.97    7.28
   7  -9   1    3.24    4.21
   7   9   1    4.03    7.54
   7  -9   1   -1.58    4.03
   7   9   1   -2.08    7.52
   7   9   2 1295.32   74.37
   7   9   2 1372.15   75.54
   7  -9   2 1212.25   62.19
   7   9   3   -2.09    7.29
   7   9   3    8.56    9.23
   7   9   4 2124.18  116.26
   7   9   4 2378.96  118.44
   7  -9   5  246.01   18.74
   7   9   5  189.72   23.49
   7  -9   6 1184.31   63.00
  -7  -9  -6 1223.03   63.07
   7   9   6 1281.08   73.98
   7  -9   7   70.33   10.65
   7   9   7  107.43   17.61
   7   9   8   91.96   16.60
   7  -9   8   61.57    9.49
   7   9   9   19.97    9.62
   7   9   9   35.40   10.86
   7   9   9   17.62    4.76
   7  -9   9   21.37    6.12
   7   9  10   21.64    9.81
   7   9  10   20.02   10.05
   7   9  10    8.48    4.11
   7  -9  10   15.03    5.67
   7   9  11   31.10   11.28
   7   9  11   37.73   10.29
   7   9  11   40.57    6.80
   7  -9  11   50.30    8.33
   7   9  12   11.72    8.43
   7   9  12    6.99    7.73
   7   9  12    5.25    3.84
   7  -9  12    2.75    3.96
   7   9  13   61.32   12.70
   7   9  13   42.66   10.41
   7  -9  13   42.73    7.40
   7   9  13   45.64    6.77
   7  -9  14   83.10    9.46
   7   9  14   81.13    8.82
   7   9  15   69.18   11.99
   7  -9  15   58.00    7.77
   7   9  15   57.36    7.14
   7   9  16  195.61   17.92
   7   9  16  167.77   12.55
   7   9  17   22.10    6.74
   7   9  17   25.91    4.50
   7   9  18   77.74    9.48
   7   9  18   50.89    5.64
   7   9  19   55.34    4.96
   7 -11 -21  218.92   15.91
   7 -11 -20   18.31    6.54
   7 -11 -19    4.95    3.28
   7 -11 -19    3.00    6.14
   7 -11 -18   41.37    6.29
   7 -11 -18   43.86   12.74
   7 -11 -17  185.98   25.15
   7 -11 -16  168.96   25.95
   7 -11 -15  731.59   58.89
   7 -11 -14  423.11   25.84
   7 -11 -14  488.45   45.37
   7 -11 -13  642.07   36.50
   7  11 -13  727.02   45.51
   7 -11 -13  772.75   57.76
  -7 -11  12  118.74   11.07
   7 -11 -12   95.00   20.10
   7  11 -12  102.71   16.58
   7 -11 -12  101.72    9.80
   7 -11 -12   84.29    9.84
   7 -11 -11    3.21    3.95
   7 -11 -11    1.41    3.20
  -7 -11  11    2.99    3.30
   7  11 -11    2.29    8.26
   7 -11 -11   -5.22   11.81
   7  11 -10   -2.50    9.66
   7 -11 -10    0.73    3.17
   7 -11 -10    1.61    3.57
  -7 -11  10    0.74    3.50
   7  11  -9   13.21   10.20
  -7 -11   9    2.24    3.48
   7 -11  -9   12.70    4.52
   7 -11  -9   13.84    4.92
   7 -11  -8   53.46    7.69
   7 -11  -8   50.13    7.63
   7  11  -8   48.88   14.98
   7 -11  -7   47.33    7.36
   7 -11  -7   27.22    5.75
   7  11  -7   73.54   16.91
   7 -11  -7   55.39   12.46
   7 -11  -6   12.20    8.25
   7 -11  -6   12.93    4.83
   7 -11  -6    3.36    4.15
   7  11  -5  587.54   46.83
   7 -11  -5  608.68   33.42
   7 -11  -5  634.36   41.41
   7 -11  -5  592.84   34.08
   7  11  -4  367.64   34.58
   7 -11  -4  325.38   22.15
   7  11  -4  316.22   31.35
   7 -11  -4  371.83   28.56
   7 -11  -4  342.00   21.78
   7 -11  -3 1148.79   61.12
   7 -11  -3 1065.24   54.05
   7  11  -3 1074.60   66.00
   7 -11  -3 1037.90   52.92
   7  11  -3  949.60   65.58
   7  11  -2  545.24   40.79
   7 -11  -2  562.22   35.74
   7 -11  -2  493.11   29.80
   7 -11  -2  484.48   28.94
   7  11  -2  497.20   40.68
   7 -11  -2  470.08   27.72
   7 -11  -1 1172.95   57.95
   7 -11  -1 1109.10   57.04
   7  11  -1 1146.47   69.15
   7  11  -1 1142.94   70.55
   7  11   0  201.30   23.81
   7  11   0  207.87   24.44
   7 -11   0  176.29   14.99
   7  11   1  270.46   27.78
   7  11   1  277.76   28.01
   7 -11   1  283.05   20.20
   7  11   2    2.08    7.78
   7  11   2    2.21    8.26
   7  11   3    4.10    8.15
   7  11   3    2.18    7.57
  -7 -11  -4   10.39    5.47
   7  11   4    6.01    7.75
   7  11   4   17.05    9.66
   7  11   5   12.49   10.25
   7  11   5    9.75    8.63
  -7 -11  -5    6.90    5.88
   7 -11   5    2.23    5.16
   7 -11   6    2.31    5.37
   7  11   6    1.88    7.49
  -7 -11  -6   15.27    6.81
   7  11   6   14.12    8.71
  -7 -11  -7   26.84    6.54
   7  11   7   25.14    9.76
   7  11   7   32.36   10.18
  -7 -11  -7   22.06    7.66
  -7 -11  -8  223.05   18.55
   7  11   8  244.64   24.20
   7  11   8  244.32   23.36
   7  11   9  674.38   43.86
  -7 -11  -9  715.93   40.84
   7  11  10  378.97   28.99
  -7 -11 -10  409.94   27.55
   7  11  11  201.42   18.92
  -7 -11 -11  202.74   17.48
  -7 -11 -12   55.78    8.60
   7  11  12   52.51    9.69
   7  11  13  174.13   15.60
   7  11  14    8.15    4.80
   7  11  15    5.84    3.55
   7 -13 -15   41.25    5.55
   7 -13 -15   55.34   12.05
   7 -13 -14  138.01   19.70
   7 -13 -13   36.52   13.99
   7 -13 -12   -2.71   13.84
   7 -13 -11  148.16   12.03
   7 -13 -11  162.14   24.81
   7 -13 -10   -0.67    3.09
   7 -13  -9 1399.74   67.40
   7 -13  -9 1522.69   69.17
   7 -13  -8   41.07    6.38
   7 -13  -8   40.75   13.69
  -7 -13   8   40.76    5.73
   7  13  -8   51.70   10.00
  -7 -13   7  642.72   19.02
   7 -13  -7  746.07   22.75
   7 -13  -7  723.83   22.75
   7  13  -7  688.85   33.74
   7 -13  -6   65.60    8.16
   7  13  -6   70.40   13.55
  -7 -13   6   55.86    6.86
   7 -13  -6   73.49    8.51
   7 -13  -6   81.95   16.18
  -7 -13   5   91.49    8.91
   7 -13  -5   91.70   10.03
   7  13  -5  106.28   16.66
   7 -13  -5  134.16   18.42
   7 -13  -4    5.22    8.72
   7  13  -4    5.98    9.22
  -7 -13   4    3.20    3.33
   7 -13  -4    3.03    3.73
   7 -13  -3  393.26   29.05
   7  13  -3  351.73   30.88
   7 -13  -3  299.51   20.78
   7 -13  -2   57.74    8.14
   7  13  -2   60.79   13.53
   7 -13  -2   85.38   12.71
   7  13  -1   88.97   15.17
   7 -13  -1  105.91   10.99
   7 -13  -1  119.75   14.63
   7  13   0   14.44    8.72
   7 -13   0    9.27    4.82
   7 -13   0   -2.31    5.23
  -7 -13   0   15.77    5.79
  -7 -13  -1   93.32   11.25
   7 -13   1   92.24   10.64
   7 -13   1   84.59   11.12
   7  13   1  102.30   15.49
   7 -13   2  126.93   12.69
  -7 -13  -2  141.31   13.64
   7  13   2  132.52   16.84
  -7 -13  -3  612.53   33.10
   7  13   3  700.59   39.35
  -7 -13  -4   49.31    8.54
   7  13   4   38.18    9.40
   7  13   5  969.47   53.40
   7  13   6  105.05   12.60
   7  13   7   89.87   10.78
  -8   0  31    0.44    2.29
  -8   0  30  179.86   12.60
  -8   0  29   -0.62    3.38
  -8   0  29    0.52    2.58
  -8   0  28   47.63    6.83
  -8   0  27    0.75    3.62
  -8   0  26  317.08   20.78
  -8   0  25   -1.63    4.31
   8   0 -25   -0.75    3.17
  -8   0  24  443.50   25.63
  -8   0  24  451.85   26.78
   8   0 -24  459.76   33.42
   8   0 -24  409.12   25.71
  -8   0  23    5.62    4.32
  -8   0  23    4.20    3.51
   8   0 -23    7.06    7.62
   8   0 -23    2.29    3.39
  -8   0  22 1815.31   86.48
   8   0 -22 1995.20   99.06
   8   0 -22 1816.49   87.05
  -8   0  22 1944.39   87.87
   8   0 -21   -1.84    6.89
  -8   0  21    1.30    2.74
  -8   0  21    1.46    4.06
   8   0 -21    3.12    2.46
   8   0 -21   -0.72    3.25
   8   0 -20 1244.17   60.43
  -8   0  20 1228.54   59.47
   8   0 -20 1255.65   58.38
  -8   0  20 1278.89   60.53
   8   0 -20 1256.65   71.41
  -8   0  19    1.73    2.72
   8   0 -19    1.78    6.65
   8   0 -19    1.25    2.90
  -8   0  19    1.26    3.05
   8   0 -19   -0.94    2.26
  -8   0  18   89.42    8.21
   8   0 -18   94.55    7.78
   8   0 -18   90.86   14.50
   8   0 -18  108.78    9.05
  -8   0  18   88.79    8.40
   8   0 -17    0.52    2.39
   8   0 -17   -0.40    1.87
   8   0 -17   -1.65    6.15
   8   0 -17    2.37    3.57
   8   0 -16   91.26    7.56
   8   0 -16   82.60    6.56
   8   0 -16   73.53    8.84
   8   0 -16   78.62   13.09
   8   0 -15   -0.97    1.92
   8   0 -15   -0.83    2.08
   8   0 -15    0.73    3.39
   8   0 -14 1401.15   67.66
   8   0 -14 1563.15   71.72
   8   0 -14 1568.18   67.06
   8   0 -13   -0.26    1.53
   8   0 -13    1.34    1.88
   8   0 -13    1.40    4.01
   8   0 -12  565.04   26.90
   8   0 -12  558.31   27.60
   8   0 -11    1.50    1.37
   8   0 -11    0.84    1.67
   8   0 -11   -0.69    4.21
   8   0 -10  672.71   30.33
   8   0 -10  662.36   31.01
   8   0 -10  643.15   35.02
   8   0  -9    0.99    1.72
   8   0  -9    1.86    1.51
   8   0  -8 1408.47   61.18
   8   0  -8 1384.20   61.82
   8   0  -7    0.90    1.68
   8   0  -7    0.87    1.38
   8   0  -7   -1.82    4.05
   8   0  -6   13.57    2.16
   8   0  -6   11.46    2.24
   8   0  -5    0.21    1.49
   8   0  -5    2.51    1.61
   8   0  -5    6.07    4.29
   8   0  -4  408.01   22.01
   8   0  -3    0.76    2.84
   8   0  -3    0.27    1.43
   8   0  -2    0.86    1.82
   8   0  -2    3.36    1.92
   8   0  -2    2.53    2.77
   8   0  -1   -0.31    1.83
   8   0  -1    1.77    1.81
   8   0  -1    0.26    2.09
   8   0   0  172.48   10.39
   8   0   0  198.69    9.92
   8   0   0  162.11   10.60
   8   0   1    1.15    2.03
   8   0   1    1.02    1.33
   8   0   2 1976.17   90.04
   8   0   2 2068.15   87.66
   8   0   3    6.49    2.51
   8   0   4  897.22   42.56
   8   0   4  904.85   42.24
   8   0   5    1.79    3.02
   8   0   5    4.99    3.09
   8   0   6 5266.50  222.39
   8   0   6 4986.58  221.70
   8   0   7    1.59    3.19
   8   0   7    1.99    2.63
   8   0   8 1097.90   52.63
   8   0   8 1094.90   52.27
   8   0   9   -2.18    3.84
   8   0   9    4.03    3.15
   8   0   9    4.23    3.50
   8   0  10  148.92   11.52
   8   0  10  133.23   12.34
   8   0  10  147.93   11.10
   8   0  10  121.04   11.22
   8   0  11    2.61    3.56
   8   0  11    3.26    3.45
   8   0  11    0.68    3.54
   8   0  11   -0.75    3.17
   8   0  12  577.10   35.56
   8   0  12  712.17   35.71
   8   0  12  697.85   35.97
   8   0  12  692.52   37.66
   8   0  12  669.89   36.26
   8   0  13    9.82    4.25
   8   0  13    0.72    3.35
   8   0  13    0.94    3.63
   8   0  13   -0.82    3.36
   8   0  14  185.53   14.14
   8   0  14  131.16   13.01
   8   0  14  158.86   14.91
   8   0  14  180.04   13.81
   8   0  15    3.31    4.07
   8   0  15    3.15    3.80
   8   0  15    1.00    4.11
   8   0  15   -0.86    3.92
   8   0  16 1209.61   61.45
   8   0  16 1275.52   60.16
   8   0  16 1123.59   59.19
   8   0  16 1178.32   59.03
   8   0  17    0.86    4.22
   8   0  17    1.02    3.93
   8   0  17    6.56    3.88
   8   0  17    4.31    4.00
   8   0  18  135.73   12.72
   8   0  18  149.94   13.37
   8   0  18  153.42   13.37
   8   0  18  164.14   14.54
   8   0  19   -0.95    4.58
   8   0  19   -0.83    4.00
   8   0  19    1.46    3.67
   8   0  19    3.13    3.99
   8   0  20  444.49   27.30
   8   0  20  471.10   26.89
   8   0  20  450.35   25.75
   8   0  20  416.65   25.39
   8   0  21    4.68    3.69
   8   0  21    3.82    3.43
   8   0  22  164.75   12.30
   8   0  22  181.69   13.46
   8   0  23    2.19    3.00
   8   0  23    3.41    2.67
   8   0  24  238.26   14.54
   8   0  24  268.44   14.76
   8   0  24  235.29   14.84
   8   0  25    1.33    1.50
   8   0  25    0.91    1.83
  -8  -2  31   21.26    3.59
  -8  -2  30  123.72    9.44
  -8   2  30  117.11    9.31
  -8  -2  30  115.25    9.39
  -8  -2  29  540.35   28.42
  -8   2  29  525.49   28.34
  -8   2  28  226.88   15.67
  -8  -2  28  234.13   15.71
   8  -2 -27  825.83   48.81
  -8   2  27  920.40   45.51
  -8  -2  27  916.70   45.28
  -8  -2  26  682.41   37.98
  -8   2  26  756.81   39.18
  -8   2  26  739.14   38.75
   8  -2 -26  744.10   44.19
  -8   2  25  190.57   14.50
   8  -2 -25  163.28   18.62
  -8  -2  25  156.39   13.72
   8   2 -25  167.35   14.29
  -8  -2  25  206.19   14.71
  -8  -2  24   17.79    4.84
  -8   2  24   33.72    6.34
   8  -2 -24   21.88    4.94
   8  -2 -24   41.46   11.24
   8   2 -24   25.69    5.70
  -8  -2  24   32.78    6.48
  -8  -2  23   26.02    5.85
  -8   2  23   31.04    6.45
  -8  -2  23   29.40    5.86
   8  -2 -23   27.12    5.34
   8   2 -23   28.91    5.87
   8  -2 -23   33.78   10.63
  -8  -2  22  357.62   22.31
   8  -2 -22  370.80   31.76
  -8   2  22  368.22   22.58
  -8  -2  22  405.61   23.10
   8   2 -22  329.04   22.14
   8  -2 -22  330.52   21.44
  -8   2  21  462.19   26.04
   8  -2 -21  503.51   27.56
   8  -2 -21  482.95   27.56
   8  -2 -21  438.07   36.97
  -8   2  21  508.47   28.36
  -8  -2  21  515.57   28.07
   8   2 -21  490.52   28.94
  -8  -2  21  487.22   27.75
  -8  -2  20   87.14    9.03
  -8   2  20   84.87    8.10
   8  -2 -20  110.64   17.38
   8  -2 -20   86.42    9.03
   8  -2 -20  101.89    9.34
  -8   2  20  108.25   10.03
  -8  -2  20   92.53    9.27
   8   2 -20   90.73   10.17
   8  -2 -19   65.45    7.11
  -8  -2  19   56.25    7.03
  -8   2  19   49.95    6.14
  -8  -2  19   66.68    7.24
  -8   2  19   64.45    7.24
   8   2 -19   49.29   11.93
   8  -2 -19   45.54    6.33
   8   2 -19   51.72    7.80
   8  -2 -19   64.57   14.88
  -8  -2  18  154.12   11.64
  -8   2  18  154.31   10.73
   8   2 -18  143.94   18.80
  -8   2  18  136.00   11.24
   8   2 -18  146.59   12.94
   8  -2 -18  139.78   11.04
   8  -2 -18  109.82   18.18
  -8  -2  18  149.07   11.41
  -8  -2  17  394.41   22.16
  -8   2  17  378.18   21.10
   8   2 -17  429.07   24.82
   8  -2 -17  409.30   22.03
   8  -2 -17  398.00   22.01
  -8  -2  17  417.75   22.32
   8   2 -17  330.35   30.33
   8  -2 -17  388.03   34.05
  -8   2  17  390.08   22.14
   8   2 -16 2147.85  103.20
   8  -2 -16 2432.11  119.01
   8  -2 -16 2278.64  100.23
   8  -2 -16 2204.03  100.24
   8   2 -16 2397.42  115.31
   8  -2 -15 1375.87   63.48
   8  -2 -15 1448.35   63.47
   8   2 -15 1311.67   66.43
   8   2 -14 1193.28   53.52
   8   2 -14 1197.60   59.44
   8  -2 -14 1250.48   56.14
   8  -2 -14 1297.05   56.08
   8  -2 -13  403.72   20.25
   8   2 -13  366.86   17.82
   8  -2 -13  414.49   20.12
   8   2 -13  432.71   23.89
   8  -2 -12 1386.74   59.21
   8   2 -12 1257.86   56.48
   8  -2 -12 1393.72   58.91
   8   2 -12 1277.12   62.45
   8  -2 -11  151.50    8.94
   8   2 -11  123.28    6.57
   8  -2 -11  148.77    8.66
   8   2 -11  140.14   11.54
   8  -2 -10  121.21    7.63
   8   2 -10  104.99    5.49
   8   2 -10  119.32   10.37
   8  -2 -10  112.88    7.29
   8  -2  -9  467.83   22.87
   8  -2  -9  477.02   22.73
   8   2  -9  460.12   25.71
   8  -2  -8    6.60    2.07
   8  -2  -8    6.85    2.10
   8   2  -7  185.58   10.16
   8  -2  -7  174.97   10.22
   8   2  -6   46.35    3.97
   8   2  -5  424.77   20.25
   8   2  -5  417.60   22.54
   8   2  -4 2099.92   90.32
   8   2  -4 2035.52   92.61
   8  -2  -3 1183.14   52.30
   8   2  -3 1207.40   52.40
   8   2  -3 1069.58   53.21
   8  -2  -2 1521.04   68.91
   8   2  -2 1539.26   69.07
   8   2  -2 1549.67   69.79
   8  -2  -2 1583.35   68.46
   8  -2  -1 1016.42   47.33
   8   2  -1  978.89   47.43
   8   2  -1 1044.44   46.56
   8  -2  -1 1064.36   46.80
   8   2  -1 1050.40   47.65
   8   2   0  320.35   17.75
   8  -2   0  342.03   17.43
   8   2   0  353.05   17.35
   8  -2   1    2.38    1.79
   8   2   1    0.29    1.83
   8   2   1    3.20    2.37
   8   2   2   29.31    3.82
   8  -2   2   29.85    3.71
   8  -2   3    0.69    2.05
   8   2   3    1.02    1.94
   8  -2   3    1.69    2.16
   8   2   3    1.33    2.13
   8   2   4  165.23   10.44
   8   2   4  180.30   11.11
   8  -2   4  154.68   10.62
   8   2   4  160.82   10.30
   8  -2   4  144.52   10.13
   8  -2   4  171.21   10.67
   8   2   5  452.63   23.30
   8  -2   5  444.75   23.31
   8  -2   5  418.18   22.82
   8   2   5  442.16   22.84
   8  -2   6  271.75   15.25
   8  -2   6  246.99   15.18
   8   2   6  239.29   14.99
   8   2   6  232.95   14.56
   8  -2   7  542.78   27.32
   8   2   7  484.40   26.69
   8  -2   7  512.41   26.62
   8   2   7  497.40   26.56
   8  -2   8  137.49   10.72
   8   2   8  150.36   10.99
   8  -2   8  128.98   10.19
   8   2   8  138.40   10.64
   8   2   9  836.36   50.39
   8  -2   9  862.30   49.84
   8  -2   9 1088.47   50.09
   8   2   9 1072.83   50.15
   8   2   9 1057.99   49.51
   8  -2   9 1116.78   52.83
   8  -2   9 1072.94   49.46
   8  -2   9 1104.48   52.28
   8  -2  10   69.04    8.72
   8  -2  10   70.95    7.51
   8   2  10   42.03    7.49
   8  -2  10   60.82    8.50
   8   2  10   84.11   11.74
   8  -2  10   62.80    6.95
   8   2  10   54.20    7.09
   8   2  10   63.81    7.23
   8  -2  10   63.29    8.26
   8   2  11   86.96   10.63
   8  -2  11   65.13    7.84
   8   2  11   73.98    8.36
   8   2  11   69.02   11.38
   8  -2  11   64.09    8.92
   8   2  11   57.52    7.52
   8  -2  11   57.26    7.36
   8  -2  11   76.76    9.43
   8   2  12   16.09    6.90
   8   2  12   10.12    4.08
   8  -2  12    8.95    3.94
   8   2  12    1.71    3.52
   8   2  12    4.04    5.05
   8  -2  12    3.26    2.91
   8   2  12    5.47    3.18
   8  -2  12    7.32    4.34
   8  -2  12    5.47    4.14
   8  -2  13  239.19   16.63
   8   2  13  249.20   17.09
   8   2  13  222.09   20.59
   8  -2  13  221.73   17.73
   8   2  13  221.05   17.60
   8  -2  13  246.29   16.33
   8   2  13  238.21   16.49
   8  -2  13  245.05   18.32
   8  -2  14   31.31    5.49
   8   2  14   20.57    7.24
   8   2  14   28.27    5.61
   8  -2  14   31.35    6.79
   8  -2  14   29.11    5.42
   8   2  14   34.20    5.70
   8   2  14   34.64    7.82
   8  -2  14   29.50    7.15
   8  -2  15  269.37   19.86
   8  -2  15  274.19   18.85
   8   2  15  305.10   19.57
   8   2  15  300.71   23.73
   8  -2  15  276.27   18.52
   8   2  15  235.63   19.51
   8   2  15  292.33   19.10
   8  -2  15  273.24   20.54
   8  -2  16  265.49   18.35
   8   2  16  307.50   23.38
   8   2  16  276.97   18.97
   8  -2  16  256.89   19.44
   8  -2  16  260.99   19.89
   8  -2  16  244.18   17.71
   8   2  16  270.49   18.48
   8   2  16  255.24   20.00
   8   2  17  401.69   27.66
   8   2  17  368.49   23.55
   8  -2  17  429.60   24.40
   8  -2  17  390.12   24.95
   8   2  17  359.97   25.16
   8  -2  17  380.53   25.32
   8  -2  17  334.56   22.49
   8   2  17  362.03   23.08
   8   2  18   -0.76    3.28
   8   2  18    2.06    4.45
   8   2  18    0.81    3.81
   8  -2  18    1.59    3.75
   8  -2  18    2.11    3.46
   8   2  18    2.13    3.57
   8  -2  18    2.72    4.01
   8  -2  18   -1.96    4.54
   8  -2  18    3.75    3.32
   8   2  19  127.06   11.66
   8  -2  19  124.22   11.31
   8  -2  19  108.57   10.31
   8   2  19  108.01   10.24
   8  -2  19  116.11   11.83
   8   2  19  125.88   12.93
   8  -2  19  121.34   12.19
   8  -2  20   74.72    8.33
   8  -2  20   87.17   10.02
   8  -2  20   85.24    9.46
   8   2  20   76.83    8.19
   8   2  20   70.16    9.60
   8  -2  21    2.36    3.18
   8   2  21   15.50    5.11
   8  -2  21    4.00    3.35
   8   2  21    3.49    3.19
   8  -2  21    6.85    3.75
   8  -2  21    6.70    3.94
   8  -2  22    5.80    3.79
   8   2  22    7.74    3.91
   8  -2  22    7.09    3.30
   8  -2  22    3.13    2.77
   8   2  22    8.75    3.34
   8  -2  22    4.37    3.52
   8   2  23    4.65    3.32
   8   2  23    0.44    2.39
   8  -2  23    5.30    2.55
   8  -2  23   -0.44    2.30
   8  -2  23    2.55    3.15
   8  -2  24   60.88    5.63
   8   2  24   62.95    6.39
   8  -2  24   57.99    5.55
   8   2  25    0.64    1.79
  -8  -4  31   17.07    3.17
   8  -4 -30    1.41    1.99
  -8  -4  30    4.81    2.71
  -8  -4  29   76.36    6.87
  -8   4  29   72.54    6.83
  -8   4  28   44.90    5.80
   8  -4 -28   47.99    7.81
  -8   4  28   40.13    5.92
  -8  -4  28   46.09    5.76
   8  -4 -27  134.64   14.26
  -8   4  27  144.09   11.08
  -8  -4  27  140.90   11.10
  -8   4  26   -0.62    3.46
  -8  -4  26   -3.75    3.57
   8  -4 -26    1.32    5.56
  -8  -4  25   46.15    6.63
  -8   4  25   42.85    6.34
   8  -4 -25   42.90   10.42
  -8   4  24    2.11    3.18
  -8  -4  24    0.70    3.44
   8  -4 -24    5.21    6.70
  -8  -4  23 1235.03   65.52
   8  -4 -23 1429.66   77.80
   8   4 -23 1347.07   66.93
  -8  -4  23 1368.47   65.54
   8  -4 -23 1438.13   67.18
  -8   4  23 1430.32   65.85
  -8  -4  22   26.61    5.65
  -8  -4  22   24.22    5.47
   8  -4 -22   27.82   10.98
   8  -4 -22   24.83    5.86
  -8   4  22   28.08    6.15
   8   4 -22   21.03    5.49
   8  -4 -21 1353.43   67.19
  -8   4  21 1452.49   66.53
   8  -4 -21 1472.76   82.67
  -8  -4  21 1389.24   66.11
   8   4 -21 1305.77   67.17
  -8   4  20    0.68    3.54
  -8  -4  20    1.34    3.25
   8  -4 -20    7.64   11.26
   8  -4 -20    1.56    3.53
   8   4 -20    0.86    3.44
   8   4 -19 1189.87   64.38
   8  -4 -19 1310.93   64.02
  -8   4  19 1376.93   63.33
  -8  -4  19 1355.04   63.15
  -8  -4  18   -1.19    3.41
   8  -4 -18    2.96    9.90
   8  -4 -18    1.36    2.94
  -8   4  18   -0.61    3.09
   8   4 -18    0.86    3.72
   8  -4 -17    3.12   10.86
  -8  -4  17    2.21    3.07
   8  -4 -17    2.50    2.84
   8   4 -17    7.64    4.34
  -8   4  17    7.29    3.02
  -8  -4  16   17.07    4.38
   8  -4 -16   19.09   11.91
   8  -4 -16   14.33    3.97
  -8  -4  16   13.25    3.36
  -8   4  16   14.97    3.72
   8   4 -16   23.30    5.43
  -8  -4  15  108.99    9.05
  -8   4  15  113.09    8.75
   8  -4 -15   86.29    8.19
   8  -4 -15   86.74   20.97
  -8  -4  15  116.82    8.77
   8   4 -15  103.47   10.45
   8   4 -14    5.61    4.04
   8  -4 -14   11.15    3.30
   8  -4 -14    8.57   11.37
   8  -4 -13   14.97   10.52
   8   4 -13   16.51    4.85
   8   4 -12  116.05   10.92
   8   4 -11 1359.22   65.69
   8   4 -10   16.78    5.03
   8  -4  -9 7262.05  306.50
   8   4  -9 7218.26  305.83
   8   4  -9 6759.40  309.67
   8  -4  -8  210.18   13.01
   8   4  -8  228.34   12.50
   8   4  -8  237.90   16.34
   8  -4  -7 2338.27  101.50
   8   4  -7 2283.51  100.52
   8   4  -7 2286.61  104.64
   8  -4  -6   10.63    2.95
   8  -4  -6   13.54    2.73
   8   4  -6   12.94    2.41
   8  -4  -5 1045.79   49.18
   8  -4  -5 1077.47   48.89
   8   4  -5 1108.92   48.89
   8  -4  -5 1100.26   49.16
   8   4  -5 1051.61   48.15
   8   4  -4    2.26    1.46
   8  -4  -4    6.66    1.99
   8   4  -4    7.83    2.01
   8  -4  -4    2.60    1.94
   8  -4  -4    5.95    2.35
   8  -4  -3  239.31   13.75
   8  -4  -3  251.86   13.85
   8  -4  -3  243.61   13.71
   8   4  -3  242.77   13.79
   8   4  -3  246.50   12.65
   8   4  -3  236.74   15.63
   8   4  -2    7.99    3.33
   8  -4  -2   16.65    3.05
   8  -4  -2   10.14    2.63
   8  -4  -1  163.57   10.40
   8  -4   0   10.86    3.07
   8  -4   0   12.44    2.49
   8  -4   1  614.61   31.40
   8  -4   1  614.62   31.48
   8   4   1  617.73   29.94
   8  -4   1  664.01   30.13
   8  -4   2  228.22   14.56
   8  -4   2  206.76   12.55
   8   4   2  239.70   12.96
   8  -4   3  915.18   41.63
   8   4   3  882.32   41.58
   8  -4   3  858.80   41.42
   8   4   3  910.43   41.66
   8  -4   4   38.26    4.51
   8   4   4   28.77    3.91
   8  -4   4   26.75    3.91
   8   4   4   25.29    3.93
   8  -4   5 1063.75   47.41
   8   4   5 1014.45   47.10
   8   4   5  963.40   46.80
   8  -4   5  991.90   47.05
   8  -4   6    1.87    2.56
   8  -4   6    4.40    4.75
   8  -4   6    4.56    2.79
   8   4   6    0.43    2.48
   8   4   6    2.23    2.19
   8  -4   7   51.39    5.91
   8   4   7   45.79    5.51
   8   4   7   47.34    8.87
   8   4   7   47.20    5.56
   8  -4   7   55.29    6.16
   8   4   7   42.55    6.48
   8  -4   7   50.04    7.67
   8  -4   8   54.01    6.36
   8  -4   8   53.06    6.25
   8   4   8   37.89    8.40
   8  -4   8   72.18    8.52
   8   4   8   41.68    5.51
   8   4   8   33.38    7.58
   8  -4   8   41.24    7.83
   8  -4   8   55.11    6.84
   8   4   8   43.70    5.59
   8   4   8   37.87    6.23
   8   4   8   42.23    6.69
   8  -4   8   46.83    7.52
   8   4   9   83.46    7.68
   8   4   9   55.41    7.71
   8  -4   9   77.41    7.82
   8  -4   9   76.10    8.39
   8   4   9   54.36   10.20
   8  -4   9   76.92   10.27
   8   4   9   72.24   10.62
   8   4   9   80.97    8.33
   8   4   9   83.68    7.80
   8   4   9   65.82    8.51
   8  -4   9   66.06    9.22
   8  -4   9   83.87    8.14
   8   4  10   25.61    4.86
   8   4  10   13.69    7.34
   8   4  10   21.12    6.81
   8   4  10   29.05    5.00
   8  -4  10   26.55    5.47
   8  -4  10   20.77    6.05
   8  -4  10   23.83    4.75
   8   4  10   24.72    5.81
   8   4  10   29.52    5.10
   8  -4  10   34.58    6.63
   8  -4  10   33.07    5.68
   8   4  11  139.06   16.19
   8  -4  11  138.76   11.89
   8   4  11  147.98   13.21
   8   4  11  147.19   15.27
   8  -4  11  140.66   11.15
   8   4  11  149.27   11.96
   8   4  11  158.25   11.55
   8  -4  11  132.37   13.96
   8  -4  11  148.59   13.52
   8  -4  11  133.98   11.16
   8   4  11  128.74   11.06
   8   4  12   20.35    4.53
   8  -4  12   16.61    4.41
   8  -4  12   12.03    4.11
   8   4  12   16.04    6.67
   8   4  12   16.20    4.19
   8   4  12    8.90    6.75
   8   4  12   18.12    4.53
   8  -4  12   15.57    5.71
   8   4  12   19.49    5.49
   8  -4  12   20.40    6.04
   8  -4  12   15.98    4.07
   8   4  13  154.83   12.40
   8  -4  13  166.93   13.31
   8   4  13  149.70   17.52
   8   4  13  162.93   13.11
   8   4  13  157.18   12.10
   8   4  13  175.94   15.20
   8  -4  13  143.13   11.77
   8  -4  13  159.40   14.77
   8  -4  13  155.91   14.88
   8  -4  13  167.32   12.77
   8  -4  14    3.45    2.75
   8   4  14   11.12    4.02
   8   4  14    0.66    3.24
   8   4  14    5.93    3.65
   8   4  14    6.07    6.22
   8  -4  14   -3.92    3.78
   8  -4  14   -1.01    3.89
   8   4  14    2.04    4.62
   8  -4  14    6.69    3.86
   8  -4  14   -1.26    4.70
   8  -4  15    6.92    3.35
   8   4  15    2.10    3.45
   8  -4  15   12.66    4.55
   8   4  15    7.46    7.35
   8  -4  15    9.64    5.34
   8  -4  15    5.23    3.41
   8  -4  15    3.90    4.22
   8   4  15    5.96    3.56
   8  -4  16    2.75    3.04
   8   4  16    0.69    3.28
   8  -4  16    1.86    4.39
   8  -4  16    3.90    3.38
   8   4  16    5.24    3.52
   8  -4  16    2.28    5.16
   8   4  16    2.87    6.19
   8  -4  17   55.11    7.14
   8   4  17   69.13   11.51
   8   4  17   54.92    7.07
   8  -4  17   48.27    7.78
   8  -4  17   61.58    7.35
   8   4  17   53.52    6.97
   8  -4  17   77.04   10.37
   8  -4  18   33.34    6.19
   8  -4  18   35.50    7.28
   8   4  18   36.30    9.10
   8  -4  18   38.35    5.76
   8   4  18   40.65    5.92
   8   4  19   72.26   10.56
   8   4  19   58.17    6.73
   8  -4  19   57.01    6.66
   8   4  19   51.05    8.31
   8  -4  19   59.56    8.28
   8  -4  19   49.64    8.49
   8   4  20   10.29    4.85
   8  -4  20    8.05    3.90
   8   4  20   12.25    3.62
   8  -4  20    8.47    4.58
   8  -4  20   14.53    3.74
   8  -4  21   81.98    7.28
   8   4  21   69.67    6.76
   8  -4  21   73.54    7.95
   8   4  21   85.84    9.39
   8  -4  21   75.98    8.74
   8  -4  22    8.74    2.71
   8  -4  22    4.16    2.73
   8   4  22    6.97    2.59
   8  -4  22    1.23    2.97
   8   4  23  404.98   22.38
   8   4  24    8.96    2.79
  -8  -6  30   20.27    3.21
  -8   6  29  296.09   16.90
  -8  -6  29  331.19   18.12
  -8   6  28  171.52   11.45
  -8  -6  28  155.33   11.46
   8  -6 -27  532.81   31.22
   8  -6 -26  102.23   12.41
   8  -6 -25   95.13   13.45
   8  -6 -24   42.38   10.23
   8  -6 -23   22.65   10.02
   8  -6 -22   92.80   16.74
  -8  -6  21  339.05   21.67
   8   6 -21  333.11   21.90
   8  -6 -21  349.36   23.35
   8  -6 -21  338.61   33.12
  -8  -6  21  325.87   19.78
   8  -6 -20   10.91   10.90
  -8  -6  20   27.32    5.68
  -8  -6  20   25.97    4.87
   8  -6 -20   36.77    7.00
   8   6 -20   22.61    5.44
   8   6 -20   15.75    5.46
  -8  -6  19   66.64    8.41
   8  -6 -19   50.98   17.12
  -8  -6  19   77.14    7.82
   8   6 -19   63.10    9.27
  -8  -6  18   35.64    6.09
  -8  -6  18   54.88    6.43
   8   6 -18   47.62    7.86
   8  -6 -18   44.78   16.74
  -8  -6  17  127.11   11.32
   8  -6 -17  150.61   26.05
   8   6 -17  124.21   12.87
  -8  -6  16  958.65   47.48
   8  -6 -16  872.53   66.55
   8   6 -16  952.68   50.19
  -8  -6  15 1078.20   52.24
   8  -6 -15 1049.97   52.55
   8  -6 -15 1019.16   70.96
   8   6 -15 1089.95   55.48
  -8  -6  14  664.28   33.63
   8   6 -14  602.58   36.40
   8  -6 -14  637.60   33.92
   8  -6 -14  684.41   50.61
  -8  -6  13  248.56   15.85
   8  -6 -13  235.27   16.04
   8   6 -13  274.96   19.47
   8  -6 -13  256.03   27.62
  -8  -6  12  376.32   21.25
   8   6 -12  329.55   24.17
   8   6 -12  397.19   21.01
   8  -6 -12  386.63   21.87
  -8  -6  11  302.59   18.01
   8  -6 -11  307.84   18.68
   8   6 -11  335.36   18.00
   8   6 -11  320.63   22.01
   8   6 -10   46.91    5.12
   8  -6 -10   48.89    6.09
   8  -6 -10   34.47    8.94
   8   6 -10   44.97    7.86
   8  -6  -9  250.22   21.17
   8  -6  -9  276.01   14.82
   8  -6  -9  261.89   16.21
   8   6  -9  268.02   15.01
   8   6  -9  258.91   19.39
   8  -6  -8    2.14    4.51
   8  -6  -8    1.00    2.51
   8   6  -8    2.03    1.88
   8   6  -8    4.58    4.24
   8  -6  -7  438.56   22.87
   8   6  -7  401.18   25.84
   8   6  -7  418.74   20.94
   8  -6  -7  376.26   26.19
   8   6  -7  432.91   29.60
   8   6  -6  109.72   13.19
   8  -6  -6  101.58    8.52
   8   6  -6  121.08    7.55
   8   6  -6  108.67   11.35
   8  -6  -5  630.83   30.21
   8   6  -5  647.36   37.68
   8   6  -5  574.81   27.85
   8   6  -5  551.41   33.10
   8  -6  -4  938.61   44.53
   8  -6  -3  237.63   14.81
   8  -6  -3  246.16   14.63
   8  -6  -2 1438.69   66.16
   8  -6  -2 1502.32   66.05
   8  -6  -2 1446.82   65.83
   8   6  -2 1304.13   68.39
   8  -6  -1  750.52   37.85
   8  -6  -1  779.82   37.76
   8  -6   0  111.65    9.44
   8  -6   0  130.23    9.93
   8  -6   1   53.02    6.44
   8   6   1   45.34    9.11
   8  -6   1   50.51    6.18
   8   6   1   60.08   10.56
   8   6   2   13.17    6.65
   8  -6   2   12.26    4.09
   8  -6   2   14.30    4.91
   8   6   2   14.52    6.00
   8  -6   2   10.72    4.03
   8  -6   3    3.48    3.86
   8   6   3    4.50    5.80
   8   6   3   -1.33    4.98
   8  -6   3   11.69    3.91
   8  -6   3    4.89    4.12
   8  -6   4  199.41   12.63
   8   6   4  251.75   22.23
   8   6   4  267.52   21.38
   8  -6   4  209.35   17.22
   8  -6   4  206.19   17.84
   8  -6   4  228.92   16.75
   8  -6   5    9.38    2.66
   8   6   5    2.72    5.25
   8   6   5   11.03    6.64
   8  -6   5    3.46    4.35
   8  -6   5    9.71    6.10
   8  -6   5    7.47    4.62
   8  -6   5   10.76    4.98
   8   6   6   79.11   12.95
   8  -6   6   65.21    9.44
   8  -6   6   70.84    6.70
   8  -6   6   71.28   10.67
   8  -6   6   98.13   13.14
   8  -6   6   87.18   10.39
   8   6   6   69.89   11.20
   8  -6   7   24.35    8.36
   8   6   7   39.06    8.78
   8  -6   7   18.38    7.00
   8  -6   7   17.23    3.40
   8   6   7   26.85    5.79
   8  -6   7   26.66    6.53
   8  -6   8    6.09    4.70
   8  -6   8    5.13    2.48
   8  -6   8    3.34    7.04
   8   6   8   -2.85    5.33
   8  -6   8    1.42    5.14
   8   6   8    0.85    3.50
   8  -6   9  779.23   38.08
   8   6   9  788.94   46.89
   8  -6   9  618.83   44.41
   8   6   9  799.06   41.93
   8  -6   9  668.06   47.38
   8  -6   9  858.75   43.78
   8   6  10   45.83    9.45
   8  -6  10   41.05    9.82
   8   6  10   41.86    7.44
   8  -6  10   48.88    6.18
   8  -6  10   33.12   10.39
   8  -6  10   60.40    9.14
   8   6  11  153.70   17.11
   8  -6  11  124.75   10.63
   8  -6  11  140.15   18.16
   8   6  11  136.64   13.42
   8  -6  11  150.51   14.33
   8  -6  12   22.51    4.79
   8   6  12   14.20    8.64
   8   6  12   26.70    8.42
   8  -6  12   27.70    9.81
   8   6  12   40.52    7.59
   8  -6  12   27.16    6.85
   8   6  13  554.38   38.47
   8  -6  13  492.36   27.81
   8   6  13  505.62   35.24
   8   6  13  557.49   32.48
   8  -6  13  501.41   32.23
   8   6  14   13.47    7.99
   8   6  14   20.17    6.34
   8  -6  14   12.67    3.77
   8  -6  14    8.54    6.47
   8  -6  14   17.50    6.07
   8   6  15  132.64   16.28
   8   6  15  127.60   13.00
   8  -6  15  107.56    9.30
   8  -6  15  134.34   14.46
   8  -6  15  109.99   12.17
   8   6  16   -2.96    6.40
   8  -6  16    3.91    2.67
   8  -6  16    2.93    4.11
   8   6  16    4.83    4.38
   8  -6  16   -2.13    5.25
   8   6  17  113.02   11.61
   8   6  17   91.75   13.34
   8  -6  17   95.21   10.88
   8  -6  17   88.35   10.84
   8   6  18    2.41    5.81
   8  -6  18    0.74    3.64
   8   6  18    0.85    4.03
   8  -6  18   -0.87    4.26
   8   6  19   90.04   11.25
   8  -6  19   68.88    8.61
   8   6  19   81.95    9.04
   8  -6  19   59.22    7.29
   8   6  20    6.01    3.88
   8  -6  20   10.25    4.24
   8   6  21    0.56    2.92
   8  -6  21    2.85    3.07
  -8   8  27    3.49    2.46
  -8  -8  27    2.31    2.14
   8  -8 -26   42.14    6.11
  -8  -8  26   56.09    6.28
   8  -8 -25    8.14    5.17
  -8  -8  25    0.59    2.95
   8  -8 -24  117.61   13.80
   8  -8 -24   95.28    8.75
  -8  -8  24  122.86   10.63
   8  -8 -23   34.19    5.69
   8  -8 -23   35.48    9.98
   8  -8 -22 1274.70   62.22
   8  -8 -22 1337.61   73.97
   8  -8 -21    4.61   10.44
   8   8 -20 1065.25   60.58
   8  -8 -20 1021.36   68.92
   8  -8 -19   22.04   13.62
   8   8 -19   21.22    9.35
   8  -8 -18   31.32   15.40
   8   8 -18    2.23    8.35
   8  -8 -18   18.64    5.79
  -8  -8  17    4.26    3.23
   8   8 -17    4.96    8.97
   8   8 -17   10.85    4.96
   8  -8 -17    9.50    5.20
   8   8 -17   14.62    4.37
   8  -8 -17   14.54   13.59
  -8  -8  16  420.65   25.49
   8  -8 -16  499.47   28.41
   8   8 -16  510.99   42.46
   8  -8 -16  437.57   45.23
   8   8 -16  440.02   25.44
   8   8 -16  425.43   28.22
  -8  -8  15    2.67    2.97
   8  -8 -15    3.35   12.94
   8  -8 -15   11.25    4.59
   8   8 -15   19.43   11.05
   8   8 -15   13.83    3.81
   8   8 -15   15.91    5.89
  -8  -8  14  855.66   44.63
   8   8 -14  907.60   44.44
   8   8 -14 1023.22   65.49
   8  -8 -14  894.70   46.79
   8  -8 -14 1028.64   68.09
   8   8 -14  913.07   49.18
  -8  -8  13    0.61    2.70
   8   8 -13   -1.11    4.42
   8  -8 -13    1.57    3.87
   8   8 -13   -2.69    9.73
   8   8 -13    3.80    2.40
   8  -8 -13    5.28   10.51
  -8  -8  12   26.58    4.50
   8  -8 -12   21.89    5.23
   8   8 -12   25.50   12.84
   8   8 -12   25.97    4.25
   8  -8 -12   26.37    5.64
   8   8 -12   29.40    7.00
  -8  -8  12   33.37    5.00
   8   8 -11    3.20    2.03
   8  -8 -11    2.91    3.14
   8   8 -11    7.17   10.05
   8   8 -11    1.15    4.29
   8   8 -10  452.76   38.27
   8  -8 -10  469.46   27.57
   8  -8  -9   42.08    6.50
   8   8  -9   58.24   12.86
   8  -8  -9   55.52   10.91
   8   8  -9   49.34    8.65
   8  -8  -8  881.16   52.71
   8   8  -8  979.23   58.44
   8   8  -8  895.85   50.45
   8  -8  -8  926.06   45.85
   8   8  -7    9.39    8.50
   8  -8  -7   -0.67    2.98
   8  -8  -7    7.01    3.31
   8  -8  -7   -2.66    4.81
   8   8  -7    1.18    4.56
   8  -8  -6  101.44    9.19
   8   8  -6   76.05   13.00
   8  -8  -6   61.51    7.41
   8  -8  -6   79.83   11.43
   8   8  -6   69.42   10.65
   8   8  -5    1.16    4.34
   8  -8  -5    2.66    3.01
   8   8  -5   -1.77    6.63
   8  -8  -5    4.27    2.88
   8  -8  -4  293.00   18.85
   8   8  -4  294.07   26.29
   8  -8  -4  306.06   18.69
   8   8  -4  300.64   22.55
   8   8  -3   57.94    9.00
   8  -8  -3   44.95    6.72
   8  -8  -3   60.69    7.05
   8   8  -3   59.64   11.59
   8  -8  -2  158.93   12.22
   8  -8  -2  139.97   11.53
   8   8  -2  111.73   16.63
   8   8  -2  144.69   18.38
   8   8  -1    1.83    6.86
   8  -8  -1    0.67    3.37
   8  -8  -1   -0.70    3.17
   8   8  -1    1.79    7.14
   8  -8   0    2.83    3.21
   8  -8   0    5.82    3.98
   8   8   0    5.48    8.08
   8   8   0    5.62    7.45
   8   8   0    3.29    4.74
   8  -8   1    0.76    3.97
   8  -8   1    0.66    2.71
   8   8   1   -1.91    7.15
   8  -8   1    0.75    3.41
   8   8   1    1.86    6.22
   8   8   2 1313.01   72.54
   8  -8   2 1190.49   60.42
   8  -8   2 1231.10   60.60
   8   8   3   60.30   13.26
   8   8   4  554.07   41.28
   8  -8   5   18.75    6.82
   8   8   5   19.39    9.41
   8   8   5   35.82   11.55
   8  -8   5   25.62    6.24
   8  -8   6  287.95   21.74
   8   8   6  274.95   27.90
   8   8   6  256.03   25.53
   8  -8   6  257.81   20.43
   8   8   7    2.18    8.41
   8   8   7    7.75    7.94
   8  -8   7    1.25    5.94
   8   8   7    6.29    3.88
   8  -8   7    9.95    5.55
   8   8   8    1.92    7.62
   8   8   8    2.19    8.98
   8   8   8    4.89    3.61
   8  -8   8    4.55    4.79
   8   8   9    2.19    9.90
   8   8   9   -1.88    6.79
   8   8   9    5.01    3.78
   8  -8   9    5.72    5.30
   8   8  10  154.64   21.11
   8   8  10  168.52   14.45
   8   8  10  175.54   20.31
   8  -8  10  194.04   16.83
   8   8  11   -8.31    8.02
   8   8  11    3.50    6.96
   8  -8  11   -2.19    4.35
   8   8  11    0.85    3.85
   8   8  12  389.28   33.05
   8   8  12  382.54   30.79
   8   8  12  412.89   25.40
   8  -8  12  432.56   27.35
   8   8  13   83.04   14.66
   8   8  13   68.38   12.28
   8   8  13   74.22    9.17
   8  -8  13   61.14    9.16
   8   8  14   33.77   10.36
   8   8  14   23.86    6.09
   8  -8  14   22.98    6.17
   8   8  15    5.26    3.71
   8  -8  15    5.92    4.70
   8   8  16   36.86    6.22
   8  -8  16   48.34    7.17
   8   8  17    8.12    3.91
   8  -8  17    3.40    3.36
   8   8  18    0.54    2.91
   8   8  19    0.45    2.87
   8   8  20  187.45   11.38
   8 -10 -23    7.15    3.97
   8 -10 -22   87.76   11.12
   8 -10 -21   67.64    7.62
   8 -10 -21   69.79   12.48
   8 -10 -20  126.29   11.17
   8 -10 -20  114.11   17.44
   8 -10 -19   51.71    7.57
   8 -10 -19   57.15   15.06
   8 -10 -18    4.78    4.15
   8 -10 -18   -5.80   12.20
   8 -10 -17   36.39    6.96
   8  10 -17   42.38    9.90
   8 -10 -17   30.02   16.17
   8 -10 -16  772.19   41.80
   8  10 -16  796.60   50.33
   8 -10 -16  827.23   64.07
   8  10 -15  132.31   18.98
   8 -10 -15  132.68   26.04
   8  10 -14  384.92   35.80
   8 -10 -14  393.26   41.68
   8 -10 -13   33.96   14.95
   8  10 -13   28.82   12.20
   8 -10 -12  314.24   19.90
  -8 -10  12  355.02   20.96
   8  10 -12  279.48   32.13
   8 -10 -11  151.56   13.44
   8 -10 -11  175.88   13.02
  -8 -10  11  169.46   13.10
   8  10 -11  186.51   25.32
   8 -10 -11  159.42   13.36
   8  10 -11  128.78   14.92
   8 -10 -10  333.32   21.15
   8  10 -10  270.99   30.50
   8 -10 -10  325.74   19.99
   8 -10 -10  285.59   20.04
   8  10 -10  358.53   35.49
   8  10 -10  316.36   24.26
   8  10  -9  451.10   41.62
   8 -10  -9  497.40   27.64
   8 -10  -9  487.45   28.09
   8 -10  -9  488.71   37.70
   8 -10  -9  472.92   28.76
   8  10  -9  498.12   32.99
   8  10  -9  521.80   42.45
   8  10  -8   80.00   16.40
   8 -10  -8   78.51    9.42
   8  10  -8   80.06   17.23
   8 -10  -8   72.90    8.74
   8 -10  -8   86.72    8.96
   8 -10  -8   86.21   15.10
   8  10  -8   87.02   12.48
   8 -10  -7  231.46   17.01
   8 -10  -7  214.91   22.10
   8  10  -7  205.87   26.24
   8  10  -7  252.27   27.76
   8 -10  -7  235.18   15.92
   8  10  -7  208.06   19.98
   8 -10  -7  217.81   16.22
   8  10  -6    7.14    6.01
   8 -10  -6    4.16    4.18
   8 -10  -6   14.46    8.21
   8  10  -6    9.92    9.87
   8  10  -6    2.33    9.00
   8 -10  -6    5.64    3.61
   8  10  -5   20.53   10.82
   8 -10  -5   24.27    6.00
   8 -10  -5   17.95    4.88
   8  10  -5   28.78   10.89
   8 -10  -5   18.35    7.86
   8  10  -5   21.59    7.53
   8 -10  -4  181.05   14.64
   8 -10  -4  207.11   20.01
   8  10  -4  219.21   20.18
   8  10  -4  239.94   26.20
   8 -10  -4  219.52   16.31
   8  10  -4  190.37   23.87
   8  10  -3   24.21    7.86
   8 -10  -3   34.98    6.78
   8  10  -3   41.86   12.63
   8  10  -3   29.71   11.08
   8 -10  -3   22.79    5.55
   8 -10  -3   18.46    7.08
   8 -10  -2  701.81   38.41
   8  10  -2  778.79   51.35
   8 -10  -2  711.49   39.09
   8  10  -2  752.86   50.55
   8  10  -2  684.00   43.14
   8 -10  -1   22.78    5.00
   8  10  -1   17.31    9.61
   8 -10  -1   17.66    5.46
   8  10  -1   20.00   10.10
   8 -10  -1   24.77    5.59
   8  10   0    2.20    7.67
   8  10   0   -4.31    8.05
   8 -10   0   -1.80    4.18
   8 -10   0   -0.87    4.02
   8  10   1   30.75   10.42
   8 -10   1   19.32    6.52
   8  10   1   17.62    7.22
   8  10   1   21.53   10.83
   8  10   2   56.76   14.37
   8  10   2   61.22   10.44
   8  10   2   71.17   15.23
   8 -10   2   59.56    9.12
   8  10   3   19.41   10.62
   8  10   3    9.13    6.05
   8  10   3    2.18    8.14
   8  10   4  204.68   23.66
   8  10   4  205.53   23.56
   8  10   4  192.82   18.38
   8  10   5   10.73    9.49
  -8 -10  -5    3.25    4.80
   8 -10   5    4.72    5.47
   8  10   6    2.12    8.20
   8 -10   6   -1.24    6.12
   8  10   7    8.31    9.20
   8  10   8   -2.01    8.22
   8  10   9  126.17   17.68
   8  10   9   76.74   14.14
   8  10  10   55.73   12.05
   8  10  10   42.95   12.03
   8  10  11  330.74   26.94
   8  10  11  260.69   23.75
   8  10  12   76.53   12.01
   8  10  12   85.90   13.54
   8  10  13  177.08   17.62
   8  10  14   22.31    6.96
   8  10  15   43.88    7.97
   8  10  16   28.63    6.07
   8 -12 -19  135.50   12.90
   8 -12 -18    7.33    6.57
   8 -12 -17  269.98   24.92
   8 -12 -16    2.10    9.31
   8 -12 -15  219.82   15.23
   8 -12 -15  220.05   27.08
   8 -12 -14   27.67   13.97
   8 -12 -14   39.04    6.03
   8 -12 -13   51.64   17.12
   8 -12 -13   30.59    5.58
   8  12 -12   52.05   10.53
   8 -12 -12   43.80    6.56
   8 -12 -11  256.65   17.50
   8  12 -11  265.73   25.41
   8 -12 -10   18.87    4.81
  -8 -12  10   18.40    4.76
   8 -12 -10   14.23    4.46
   8  12 -10   26.88   10.59
   8 -12  -9 1351.86   61.57
   8 -12  -9 1230.91   60.81
   8  12  -9 1180.52   73.89
  -8 -12   9 1198.00   59.67
   8 -12  -9 1315.73   76.38
   8 -12  -8   76.72   15.79
   8 -12  -8   62.99    8.13
  -8 -12   8   65.90    7.82
   8 -12  -8   62.63    8.11
   8  12  -8   67.28   15.46
   8 -12  -7  334.88   29.86
   8 -12  -7  292.43   19.93
  -8 -12   7  299.53   19.17
   8 -12  -7  303.01   20.09
   8  12  -7  315.37   31.82
   8 -12  -6    4.77    3.76
   8  12  -6    4.91    8.86
   8 -12  -6    1.93    7.92
   8 -12  -6    1.57    3.56
   8  12  -5   21.67   10.67
   8 -12  -5   15.26    4.50
   8 -12  -5   17.07    5.25
   8 -12  -5   17.53    5.10
   8 -12  -5   23.71    9.35
   8  12  -4   16.36   10.09
   8 -12  -4    4.97    4.23
   8 -12  -4   12.16    4.76
   8 -12  -4   -0.63    1.61
   8 -12  -4   17.20    8.46
   8  12  -3  484.89   39.84
   8 -12  -3  475.93   29.21
   8 -12  -2    2.57    4.05
   8  12  -2   11.44    9.39
   8  12  -2    4.34    8.64
   8 -12  -2    4.52    6.98
   8  12  -1   87.55   15.83
   8 -12  -1  112.40   14.23
   8  12  -1   66.43   14.51
   8 -12  -1  102.76   11.11
   8  12   0   16.77    9.04
   8 -12   0   13.84    5.63
   8  12   0   42.04   11.47
   8 -12   0   28.99    8.03
   8  12   1    9.04    7.81
   8  12   1   17.34    8.93
   8 -12   1    4.82    4.57
   8 -12   1   11.26    6.25
   8 -12   2   19.12    6.01
   8 -12   2   22.72    6.49
   8  12   2   38.19   10.65
   8  12   2   36.87   10.88
  -8 -12  -2   28.69    7.41
   8 -12   3  136.94   12.74
   8  12   3  144.53   18.13
   8  12   3  151.89   18.05
  -8 -12  -3  142.97   14.18
   8  12   4   52.80   11.22
   8  12   4   51.77   10.81
  -8 -12  -4   50.16    8.27
   8  12   5  132.96   16.32
   8  12   5  146.20   17.24
   8  12   6    1.46    6.15
   8  12   6    2.65    6.40
   8  12   7   92.42   12.25
   8  12   7   86.80   12.54
   8  12   8   32.31    7.83
   8  12   8   23.44    6.60
   8  12   9   72.99    9.65
   8  12  10    4.68    4.26
   8  12  11  142.59   11.80
   8  12  12    0.48    2.32
   8 -14  -9  349.63   30.39
   8 -14  -8   53.61   12.94
   8 -14  -7  339.17   29.49
   8 -14  -6    6.52    7.38
  -8 -14   6   -0.94    4.55
  -8 -14   5   44.36    7.67
   8 -14  -5   37.54   10.21
   8 -14  -4   54.69   10.13
  -8 -14   4   49.00    7.59
   8 -14  -3   69.12   10.16
  -8 -14   3   46.55    7.08
   8  14  -2   43.46    8.28
  -8 -14   2   37.98    6.36
   8  14  -1   49.15    8.21
   8  14   0    3.69    4.36
   8  14   1   60.29    8.36
  -9   1  31    5.72    2.69
  -9  -1  31   -0.35    0.96
  -9   1  30  163.12   11.61
  -9  -1  30  139.28   10.69
  -9   1  29   -2.46    3.99
  -9   1  28  504.77   28.29
  -9   1  27   83.24    9.09
   9  -1 -26  200.14   20.86
  -9   1  26  262.25   17.76
   9   1 -25   66.59    8.26
  -9  -1  25   60.35    7.68
  -9   1  25   61.99    8.40
   9  -1 -25   49.98   11.66
   9  -1 -24  181.48   21.13
  -9  -1  24  200.14   15.30
  -9   1  24  206.63   14.72
   9   1 -24  206.42   15.88
  -9   1  24  219.62   16.26
   9  -1 -23   71.44    8.45
  -9  -1  23   65.87    8.13
  -9   1  23   51.41    7.01
   9   1 -23   55.64   12.04
   9  -1 -23   53.75   12.01
   9   1 -23   62.26    8.18
  -9   1  23   71.67    8.60
  -9  -1  22 1248.39   63.92
  -9   1  22 1280.32   63.26
  -9   1  22 1421.44   65.48
   9   1 -22 1393.50   65.24
   9  -1 -22 1324.66   63.19
   9   1 -22 1350.57   75.04
   9  -1 -22 1390.52   76.86
   9  -1 -22 1384.49   64.99
  -9  -1  21    2.07    2.98
  -9   1  21   -1.23    2.59
   9   1 -21    5.47    8.26
   9  -1 -21   13.89    8.78
   9   1 -21    0.74    2.95
   9  -1 -21    1.44    2.78
   9  -1 -21   -0.59    2.50
  -9   1  21    2.93    3.68
  -9  -1  20  731.97   38.23
  -9   1  20  716.31   37.33
   9   1 -20  812.45   39.27
   9  -1 -20  718.58   49.09
   9  -1 -20  705.32   37.14
   9   1 -20  687.53   47.27
  -9   1  20  733.32   38.67
   9  -1 -20  794.06   38.89
   9   1 -20  770.78   40.83
  -9   1  19   65.32    6.94
   9  -1 -19   62.61    6.76
   9  -1 -19   80.77    8.04
   9  -1 -19   62.71   13.38
   9   1 -19   54.76    7.10
  -9  -1  19   69.61    7.42
  -9   1  19   61.82    7.19
   9   1 -19   54.32   11.91
   9   1 -19   65.97    8.67
  -9  -1  18   13.63    3.74
  -9   1  18   23.97    4.32
   9  -1 -18   26.50    4.40
   9   1 -18   12.33    2.53
   9   1 -18   11.92    7.38
   9   1 -18   12.94    3.87
   9  -1 -18   28.81    4.64
   9  -1 -18   12.79    8.30
  -9   1  18   17.68    4.50
   9   1 -18   13.71    4.94
   9  -1 -17  481.79   24.89
   9   1 -17  433.13   22.37
   9  -1 -17  466.66   24.19
   9   1 -17  471.13   34.49
   9   1 -17  473.90   24.95
   9  -1 -17  438.04   34.41
   9   1 -17  455.54   27.32
   9  -1 -16  429.29   21.75
   9   1 -16  383.06   21.41
   9  -1 -16  374.26   30.53
   9  -1 -16  382.69   20.80
   9   1 -16  384.59   19.42
   9   1 -16  362.57   29.67
   9   1 -16  422.70   24.85
   9   1 -15   72.81    5.34
   9  -1 -15   72.53    6.20
   9   1 -15   77.05    6.60
   9  -1 -15   65.16    6.29
   9  -1 -15   71.49    9.15
   9   1 -15   61.24    8.23
   9  -1 -14  213.15   12.75
   9   1 -14  249.58   17.11
   9   1 -14  212.35   11.68
   9   1 -14  223.21   13.42
   9  -1 -14  244.49   13.58
   9  -1 -14  233.82   17.28
   9  -1 -13  221.26   12.66
   9   1 -13  221.40   11.58
   9   1 -13  211.13   13.01
   9  -1 -13  248.26   13.22
   9   1 -13  213.33   16.16
   9  -1 -13  229.62   17.16
   9  -1 -12  131.63    8.45
   9  -1 -12  120.26    7.95
   9   1 -12  126.89    7.16
   9   1 -12  120.49    8.28
   9   1 -12  104.32   10.78
   9  -1 -11   42.93    4.13
   9   1 -11   47.93    3.57
   9   1 -11   41.16    4.31
   9  -1 -11   41.17    4.27
   9   1 -11   40.04    6.69
   9   1 -10  320.53   15.74
   9  -1 -10  349.84   16.89
   9   1 -10  323.54   17.00
   9  -1 -10  331.35   17.07
   9   1  -9  302.05   15.67
   9  -1  -9  303.08   15.37
   9   1  -9  292.41   14.47
   9  -1  -9  316.52   15.82
   9  -1  -9  306.84   21.30
   9  -1  -8  243.63   18.93
   9   1  -8  256.15   12.78
   9   1  -8  279.45   14.03
   9  -1  -8  262.43   14.04
   9  -1  -8  262.67   13.67
   9  -1  -7   40.71    3.80
   9  -1  -7   41.10    4.00
   9   1  -7   37.17    5.52
   9  -1  -6    2.82    1.98
   9   1  -6    6.91    3.73
   9  -1  -6    9.09    5.23
   9  -1  -5   41.85    4.05
   9   1  -5   44.61    5.37
   9   1  -4  368.38   21.39
   9  -1  -4  484.18   23.40
   9   1  -3  237.00   14.21
   9   1  -3  245.48   14.85
   9   1  -2  548.08   27.51
   9  -1  -2  568.90   26.45
   9   1  -2  537.49   26.65
   9   1  -2  592.92   27.60
   9   1  -1  128.97    8.69
   9   1  -1  109.52    7.63
   9  -1  -1  106.66    6.30
   9   1   0    9.21    2.49
   9   1   0   13.51    2.79
   9   1   1    2.61    1.86
   9   1   1    2.61    2.12
   9   1   2  231.29   12.94
   9   1   2  208.83   12.63
   9  -1   2  205.65   12.57
   9   1   2  229.50   11.83
   9   1   3   26.87    3.99
   9   1   3   27.39    2.94
   9  -1   3   24.98    3.85
   9   1   3   19.93    3.54
   9   1   4  154.79   10.15
   9   1   4  142.26   10.31
   9   1   4  148.41    9.95
   9   1   4  144.64    8.03
   9   1   5   94.29    7.67
   9   1   5   90.62    8.04
   9   1   5   88.36    5.29
   9   1   5  100.27    7.85
   9   1   6   44.59    5.67
   9   1   6   41.73    5.42
   9   1   7    4.82    2.79
   9   1   7    7.46    3.29
   9   1   8    7.41    3.48
   9   1   8    6.46    3.98
   9  -1   8    3.01    3.09
   9  -1   8    5.21    3.75
   9   1   8    6.91    3.10
   9   1   9  284.04   22.44
   9   1   9  372.06   22.53
   9  -1   9  348.20   24.20
   9   1   9  325.84   21.57
   9  -1   9  344.19   23.31
   9   1  10    5.13    4.45
   9   1  10    8.38    4.22
   9  -1  10   18.36    5.47
   9   1  10    3.35    3.63
   9   1  10   11.19    3.77
   9   1  10    7.95    3.43
   9  -1  10    0.83    3.43
   9   1  11   16.10    7.67
   9   1  11   -1.15    4.58
   9   1  11    2.78    3.29
   9   1  11    2.21    3.48
   9  -1  11    0.94    3.97
   9   1  11    8.75    4.14
   9   1  11    3.75    3.62
   9  -1  11    1.74    4.02
   9   1  12  239.29   17.52
   9   1  12  238.05   19.19
   9   1  12  231.32   15.90
   9  -1  12  188.43   16.28
   9   1  12  189.93   15.05
   9   1  12  170.17   15.43
   9   1  12  179.46   14.43
   9  -1  12  184.63   15.70
   9   1  13   89.88    9.67
   9   1  13   84.27   11.31
   9   1  13   73.42    9.88
   9  -1  13   79.55   10.15
   9   1  13   78.01    9.14
   9   1  13   75.57    8.76
   9  -1  13   76.98   10.05
   9   1  14   17.37    5.43
   9   1  14   10.25    6.13
   9  -1  14   14.19    5.18
   9   1  14   10.16    4.48
   9  -1  14    2.98    4.09
   9   1  14   19.79    5.98
   9   1  14    6.36    3.86
   9   1  15  240.98   17.21
   9   1  15  258.21   20.09
   9   1  15  235.69   17.50
   9  -1  15  223.06   18.23
   9   1  15  233.70   18.59
   9  -1  15  206.99   17.69
   9   1  15  254.22   17.40
   9   1  16   68.09    8.67
   9   1  16   46.61    6.79
   9   1  16   50.06    7.44
   9   1  16   47.38    7.37
   9  -1  16   53.00    8.32
   9   1  16   47.24    8.30
   9  -1  16   70.67    9.77
   9   1  17    1.59    3.68
   9  -1  17    6.85    4.81
   9  -1  17   -0.92    3.87
   9   1  17    3.38    4.39
   9   1  17    0.73    3.46
   9   1  17   -3.72    4.25
   9   1  17    5.10    4.72
   9   1  18    6.56    4.03
   9  -1  18   -7.46    4.68
   9   1  18    5.06    4.01
   9   1  18    4.93    5.29
   9  -1  18    0.87    3.68
   9  -1  19    8.65    4.50
   9   1  19    2.06    3.25
   9   1  19    7.41    5.14
   9  -1  19    2.41    4.11
   9   1  20  147.65   13.34
   9   1  20  175.70   12.61
   9  -1  20  155.74   13.17
   9  -1  20  147.50   12.59
   9   1  21   19.15    5.22
   9   1  21   13.07    3.85
   9  -1  21   16.15    4.64
   9   1  22  612.67   29.75
   9  -1  22  535.39   29.71
   9   1  22  581.60   30.79
   9  -1  22  567.31   30.50
   9  -1  23   18.94    3.66
   9   1  23   16.97    3.82
   9   1  23   28.04    4.06
   9  -1  23   28.06    4.50
   9   1  24  107.80    7.80
   9  -1  24   86.61    6.43
   9  -1  24   97.14    7.23
  -9  -3  31    2.39    2.24
  -9  -3  30    9.00    2.92
  -9   3  30    8.22    3.00
  -9  -3  30    8.32    2.99
  -9   3  29  547.51   28.31
  -9  -3  29  531.24   28.06
   9  -3 -28  156.81   15.49
  -9   3  28  194.33   13.40
  -9   3  28  187.66   13.32
  -9  -3  28  177.98   12.94
  -9   3  27  432.38   24.68
  -9  -3  27  460.80   25.00
   9  -3 -27  372.12   28.55
  -9  -3  26    2.79    3.23
   9  -3 -26    4.38    5.98
  -9   3  26   -2.14    3.57
   9  -3 -25  121.76   15.95
  -9   3  25  112.45   10.79
  -9  -3  25  100.14   10.21
  -9  -3  24   17.24    5.01
  -9   3  24   19.24    5.25
  -9  -3  24   20.21    5.31
   9  -3 -24   10.64    4.14
   9   3 -24   17.05    5.05
   9  -3 -24   26.12    8.85
  -9  -3  23   13.29    4.60
  -9   3  23    5.40    4.09
  -9  -3  23    4.49    3.97
   9  -3 -23    5.38    3.87
   9  -3 -23   10.23    9.88
   9   3 -23   10.27    4.83
   9  -3 -22  337.99   21.05
  -9  -3  22  310.28   20.80
   9  -3 -22  365.90   32.17
   9   3 -22  297.38   20.95
  -9   3  22  329.38   20.80
  -9  -3  22  334.42   20.79
   9   3 -22  297.80   21.23
   9   3 -21  112.15   11.05
  -9  -3  21   97.64   10.27
   9  -3 -21   91.44   17.56
  -9   3  21  126.40   10.84
   9  -3 -21  112.44   10.54
  -9  -3  21  118.21   10.41
   9   3 -21   99.06   10.85
  -9   3  20   30.47    6.17
  -9  -3  20   42.99    6.57
  -9  -3  20   48.50    6.74
   9  -3 -20   41.88    6.47
   9   3 -20   46.05    7.47
  -9  -3  19  163.40   12.31
   9  -3 -19  138.85   11.64
   9   3 -19  123.59   12.41
   9  -3 -19  151.34   22.73
  -9   3  19  145.36   11.74
  -9  -3  19  161.18   11.85
  -9  -3  18    4.43    3.06
  -9   3  18    4.33    2.22
   9  -3 -18    5.42    3.14
   9  -3 -18    7.94    9.22
   9  -3 -18    0.54    2.59
  -9   3  18   13.88    4.04
  -9  -3  18    3.51    2.94
   9   3 -18    0.88    3.70
  -9  -3  17  931.60   45.35
  -9   3  17  940.74   43.51
   9  -3 -17 1013.37   65.52
   9  -3 -17  868.19   44.67
   9  -3 -17  904.34   44.20
  -9   3  17  927.29   45.06
  -9  -3  17  965.22   45.05
   9   3 -17  890.03   47.53
   9  -3 -16   42.94    5.11
   9  -3 -16   43.87    5.51
   9  -3 -16   57.49   16.61
   9   3 -16   52.47    7.81
   9  -3 -15 2207.50   98.67
   9  -3 -15 2384.63  123.55
   9  -3 -15 2195.96   98.11
   9   3 -15 2185.48  102.32
   9  -3 -14  233.83   13.97
   9  -3 -14  255.16   29.74
   9  -3 -14  247.65   14.52
   9   3 -14  243.66   17.32
   9  -3 -13  284.62   16.04
   9  -3 -13  287.83   15.49
   9   3 -13  245.06   18.26
   9  -3 -12  287.49   16.07
   9   3 -12  285.78   19.04
   9  -3 -11  102.34    7.83
   9   3 -11  120.82    8.26
   9   3 -11   97.97    9.98
   9  -3 -10    3.62    2.04
   9   3 -10    2.03    1.96
   9   3 -10    6.15    3.85
   9   3  -9   98.07    6.95
   9   3  -9   87.76    9.11
   9  -3  -8  312.16   16.20
   9   3  -8  314.12   16.38
   9   3  -7  306.06   15.89
   9   3  -6  144.76    8.89
   9   3  -6  161.78   11.68
   9  -3  -5  612.92   29.04
   9   3  -5  607.67   28.39
   9   3  -5  590.31   31.01
   9  -3  -4  220.10   12.72
   9   3  -4  230.95   12.88
   9   3  -4  218.04   14.13
   9   3  -4  218.19   11.87
   9  -3  -4  219.09   12.60
   9  -3  -3  674.83   30.90
   9  -3  -3  658.04   31.18
   9   3  -3  641.58   31.09
   9   3  -3  599.64   32.18
   9  -3  -3  628.71   30.63
   9  -3  -2  346.36   18.92
   9   3  -2  369.68   19.26
   9  -3  -2  346.56   18.50
   9   3  -2  352.28   19.71
   9  -3  -1  179.89   10.58
   9  -3  -1  164.68   11.62
   9  -3  -1  189.91   11.32
   9   3  -1  160.70   11.52
   9   3  -1  175.39   10.41
   9  -3   0  133.77    9.56
   9  -3   0  138.66    8.82
   9  -3   0  119.48   10.21
   9   3   0  142.86    8.97
   9   3   0  133.10    9.79
   9   3   1  247.70   13.70
   9  -3   1  221.91   15.68
   9  -3   1  248.75   13.81
   9   3   1  248.52   14.63
   9   3   1  228.28   13.51
   9  -3   1  244.13   13.77
   9  -3   2   15.59    3.32
   9  -3   2   20.00    3.45
   9   3   2   23.76    3.65
   9   3   2   21.44    3.40
   9   3   3   22.83    3.74
   9  -3   3   20.57    3.67
   9  -3   3   19.25    3.45
   9   3   3   18.11    3.37
   9  -3   4  489.39   24.64
   9   3   4  489.54   24.66
   9  -3   4  445.38   24.23
   9   3   4  482.48   24.50
   9  -3   5  142.90    9.93
   9   3   5  136.08    9.68
   9  -3   5  130.01    9.64
   9   3   5  127.28    9.45
   9  -3   6   16.49    3.46
   9  -3   6   15.95    3.25
   9   3   6   15.85    3.39
   9   3   6   10.09    2.92
   9  -3   7  175.29   11.65
   9   3   7  150.96   10.92
   9   3   7  156.99   11.08
   9  -3   7  139.21   13.31
   9  -3   7  163.25   11.83
   9  -3   7  137.53   10.85
   9   3   7  146.83   12.30
   9  -3   7  161.03   13.61
   9   3   8  109.18    8.99
   9   3   8  112.75    9.38
   9   3   8   94.33   10.58
   9  -3   8   79.33    9.77
   9  -3   8  116.18    9.78
   9  -3   8  112.98    9.10
   9   3   8   96.10    8.55
   9  -3   8   80.05   10.50
   9   3   8   85.59   11.72
   9   3   8   84.52    9.46
   9  -3   8  108.55   11.30
   9  -3   8  107.11    8.94
   9   3   9    8.90    2.98
   9   3   9   10.52    5.15
   9  -3   9    7.62    4.97
   9  -3   9    8.56    3.43
   9   3   9    1.24    4.80
   9   3   9    8.99    3.40
   9  -3   9    0.93    3.82
   9  -3   9    0.58    2.91
   9   3   9   -0.57    3.06
   9   3   9    6.93    3.87
   9  -3   9    6.05    2.93
   9   3  10   -1.89    3.11
   9   3  10    1.32    5.25
   9  -3  10   -0.60    2.90
   9   3  10    1.20    2.84
   9  -3  10   -1.89    3.98
   9   3  10    0.82    3.52
   9   3  10    2.04    3.34
   9  -3  10   -0.68    3.43
   9  -3  10   -0.63    2.85
   9   3  11    5.31    3.23
   9   3  11   10.61    5.61
   9  -3  11    8.48    4.00
   9   3  11    4.99    3.97
   9  -3  11    6.21    3.47
   9   3  11   11.98    4.41
   9  -3  11   11.48    4.90
   9   3  11    5.52    5.98
   9   3  11    7.79    4.12
   9  -3  11   11.74    4.05
   9   3  12    2.77    3.47
   9   3  12    4.27    6.14
   9   3  12    3.28    2.76
   9  -3  12    2.90    3.71
   9   3  12    2.22    3.79
   9  -3  12    1.91    2.39
   9  -3  12    0.96    3.83
   9   3  12    1.83    4.06
   9  -3  12   -0.67    2.90
   9   3  13  119.04   10.50
   9   3  13  104.98   14.23
   9   3  13  131.54   11.43
   9  -3  13  126.05   11.33
   9  -3  13  112.19   10.05
   9  -3  13  116.64   12.17
   9  -3  13  137.16   13.26
   9  -3  13   92.96    9.76
   9   3  13  103.96   10.16
   9   3  14  145.23   16.14
   9  -3  14  112.61   12.48
   9  -3  14  118.31   11.16
   9   3  14  131.74   11.64
   9  -3  14  113.47   10.28
   9   3  14  106.81   10.29
   9   3  14  118.70   10.93
   9  -3  14  139.71   13.47
   9  -3  14  126.51   10.91
   9  -3  15  131.63   11.58
   9   3  15  143.54   12.17
   9   3  15  150.20   16.61
   9   3  15  146.07   12.51
   9  -3  15  143.62   13.70
   9  -3  15  131.82   11.21
   9   3  15  142.99   11.81
   9  -3  15  147.33   12.47
   9  -3  15  133.37   13.70
   9  -3  16    5.65    3.48
   9   3  16    2.92    3.07
   9   3  16    1.31    6.07
   9  -3  16   -0.93    3.90
   9  -3  16    3.33    3.53
   9   3  16    4.13    3.45
   9   3  16    3.14    4.63
   9  -3  16   -1.05    4.53
   9  -3  17  246.48   17.63
   9   3  17  267.32   18.21
   9   3  17  302.42   22.76
   9  -3  17  267.14   17.56
   9   3  17  293.23   18.19
   9   3  17  273.97   20.51
   9  -3  17  281.14   19.63
   9  -3  17  281.26   20.62
   9  -3  18  100.28   11.27
   9   3  18   95.18   11.78
   9   3  18   92.58    9.30
   9  -3  18   75.11    9.56
   9  -3  18   87.29    8.75
   9  -3  18   85.34   10.40
   9   3  18   98.79   11.35
   9   3  19   69.13    7.71
   9  -3  19   79.13    8.07
   9  -3  19   64.48    8.28
   9   3  19   76.97    9.85
   9  -3  19   81.02    9.80
   9  -3  19   88.59   10.00
   9   3  20   69.81    7.39
   9   3  20   71.80    8.84
   9  -3  20   63.11    6.90
   9  -3  20   55.83    6.94
   9  -3  20   61.88    8.02
   9  -3  20   57.32    8.21
   9  -3  21    9.50    3.80
   9   3  21    8.08    3.01
   9  -3  21   14.69    4.93
   9  -3  21   12.49    3.34
   9  -3  21   14.04    3.78
   9   3  21   12.90    4.45
   9  -3  22   10.48    3.50
   9   3  22   13.77    4.05
   9  -3  22   17.80    3.49
   9   3  22   18.39    3.51
   9  -3  23   14.60    3.12
   9   3  23    9.56    3.07
   9   3  24   28.34    3.90
  -9  -5  31   53.40    4.84
  -9   5  29  156.08   10.65
   9  -5 -28  161.00   12.31
  -9   5  28  181.00   10.38
  -9  -5  27  249.12   15.44
   9  -5 -27  277.41   20.86
  -9  -5  26   13.31    3.70
   9  -5 -26    7.99    6.82
  -9   5  25    4.45    3.04
  -9  -5  25   -2.34    3.53
   9  -5 -25    6.25    6.40
  -9   5  24   11.29    3.86
  -9  -5  24    3.12    3.37
   9  -5 -24    5.37    7.53
  -9  -5  23  643.01   34.53
   9  -5 -23  633.94   44.80
  -9   5  23  594.14   32.52
  -9  -5  23  636.61   33.16
  -9  -5  22  341.37   21.95
   9   5 -22  310.78   22.38
   9  -5 -22  369.23   23.14
   9  -5 -22  276.66   29.72
  -9   5  22  346.30   20.81
  -9  -5  22  380.79   21.54
  -9  -5  21 1017.84   52.37
   9  -5 -21 1052.68   53.47
   9   5 -21 1083.63   53.38
   9  -5 -21  980.31   66.36
  -9   5  21 1024.42   50.90
  -9  -5  21 1074.67   51.54
   9   5 -21 1066.04   54.01
  -9  -5  20  144.84   13.10
   9  -5 -20  186.97   14.72
   9  -5 -20  179.33   25.58
   9   5 -20  185.01   14.30
  -9   5  20  156.43   12.47
  -9  -5  20  188.66   13.42
   9   5 -20  163.61   14.99
   9  -5 -19   77.25    9.06
  -9  -5  19   74.00    8.71
   9   5 -19   88.41    9.51
   9  -5 -19   81.00   18.87
  -9   5  19   95.76    8.65
  -9  -5  19   75.64    8.36
   9   5 -19   92.23   10.77
  -9   5  18    9.74    3.46
  -9  -5  18    4.16    3.20
  -9  -5  18    2.87    3.53
   9  -5 -18    0.75    3.46
   9  -5 -18    3.20   11.55
   9   5 -18    0.74    3.20
   9   5 -18    3.90    4.21
  -9  -5  17  247.30   16.65
   9  -5 -17  260.94   33.50
   9  -5 -17  236.17   16.46
  -9   5  17  257.85   15.62
  -9  -5  17  250.43   15.69
   9   5 -17  210.95   17.69
  -9  -5  16    7.10    3.42
   9  -5 -16    3.87    3.06
   9  -5 -16    6.53   11.37
   9   5 -16    9.66    4.76
  -9   5  16    3.51    2.83
  -9  -5  16    6.22    2.97
  -9  -5  15  654.39   33.00
  -9  -5  15  626.08   31.59
   9  -5 -15  649.12   52.90
   9   5 -15  589.72   35.38
  -9   5  15  618.90   31.30
   9   5 -14   84.41   10.23
   9  -5 -14   82.77   18.16
  -9   5  14   72.62    6.77
  -9  -5  14   72.41    6.92
   9   5 -14   89.89    7.98
   9   5 -13    8.49    2.99
   9   5 -13    6.56    4.35
   9   5 -12  295.86   16.98
   9   5 -12  287.34   20.43
   9   5 -11  492.80   25.11
   9  -5 -11  501.90   25.92
   9  -5 -11  479.09   35.59
   9   5 -11  465.84   29.01
   9  -5 -10    0.48    2.32
   9  -5 -10   -1.42    5.96
   9   5 -10    3.88    2.12
   9   5 -10    4.38    4.39
   9  -5  -9 1153.44   51.89
   9   5  -9 1060.78   50.43
   9   5  -9 1111.57   55.53
   9   5  -8  212.38   12.48
   9  -5  -8  232.28   13.56
   9   5  -8  204.52   16.10
   9  -5  -8  223.09   13.76
   9  -5  -7  744.16   37.59
   9  -5  -7  780.79   36.89
   9   5  -7  769.18   36.62
   9  -5  -7  787.12   37.52
   9   5  -7  766.92   41.14
   9   5  -7  810.74   36.51
   9  -5  -6   11.14    2.77
   9  -5  -6    8.35    2.83
   9   5  -6    7.70    2.51
   9  -5  -6   17.54    3.51
   9   5  -6   14.09    2.61
   9  -5  -5   71.12    6.36
   9   5  -5   76.30    6.58
   9  -5  -5   84.10    6.97
   9  -5  -5   84.82    6.74
   9  -5  -5   73.16    6.75
   9   5  -5   84.56    5.96
   9   5  -4   12.31    3.12
   9  -5  -4   11.79    3.18
   9  -5  -4    9.56    2.65
   9  -5  -4    9.35    2.99
   9  -5  -4   11.14    2.79
   9   5  -4   11.48    4.46
   9  -5  -3   11.78    3.03
   9  -5  -3   13.73    3.33
   9   5  -3   10.52    4.36
   9  -5  -2   56.11    6.00
   9   5  -2   76.32    8.05
   9   5  -1  127.61   11.19
   9  -5  -1  136.41    9.93
   9  -5   0   36.94    5.35
   9  -5   0   39.19    5.51
   9  -5   1  957.57   45.75
   9  -5   1  903.30   45.33
   9   5   2  100.03    7.52
   9  -5   2   90.17   10.70
   9  -5   2  108.33   10.01
   9  -5   2  117.67    8.07
   9  -5   3  548.61   30.01
   9  -5   3  542.01   26.54
   9   5   3  496.88   25.96
   9  -5   3  527.50   31.94
   9   5   4   95.39    7.62
   9   5   4   95.12   11.74
   9  -5   4   88.74    7.62
   9  -5   4   95.71   12.13
   9  -5   4   93.72    7.86
   9  -5   4  103.30   11.73
   9  -5   4  109.69   10.73
   9   5   5  295.02   23.37
   9  -5   5  294.36   16.76
   9  -5   5  283.33   16.49
   9   5   5  280.33   21.51
   9   5   5  245.79   15.68
   9  -5   5  273.57   21.31
   9   5   5  311.62   19.27
   9  -5   5  268.74   22.14
   9  -5   5  302.97   20.14
   9  -5   6   25.06    7.55
   9  -5   6   36.07    4.80
   9   5   6   38.95    4.64
   9   5   6   22.12    7.55
   9   5   6   16.03    6.20
   9  -5   6   28.96    7.37
   9   5   6   39.35    6.51
   9  -5   6   37.04    5.18
   9   5   6   30.07    4.44
   9  -5   6   32.03    6.86
   9  -5   7  166.29   14.93
   9  -5   7  166.72   11.91
   9   5   7  151.33   17.05
   9   5   7  160.33   11.26
   9   5   7  203.72   17.56
   9  -5   7  153.80   15.96
   9  -5   7  163.06   11.77
   9   5   7  145.64   10.97
   9   5   7  178.51   14.04
   9  -5   7  125.73   15.93
   9  -5   7  152.68   14.31
   9   5   8   72.57   10.72
   9   5   8   56.12    6.31
   9   5   8   59.13   11.00
   9  -5   8   47.11    6.25
   9  -5   8   47.23    9.63
   9   5   8   41.90    7.35
   9  -5   8   43.85    6.24
   9   5   8   40.70    5.81
   9  -5   8   43.01   10.26
   9  -5   8   53.51    8.59
   9  -5   9  251.38   21.56
   9  -5   9  251.34   16.62
   9   5   9  250.86   22.91
   9   5   9  254.90   16.24
   9   5   9  256.19   21.47
   9   5   9  255.10   16.12
   9   5   9  273.73   18.91
   9  -5   9  293.67   17.35
   9  -5   9  226.91   22.31
   9  -5   9  224.10   18.68
   9  -5  10   92.68    8.93
   9   5  10   75.67    8.17
   9   5  10   81.85   13.12
   9   5  10   70.80   11.60
   9  -5  10  106.54    9.28
   9   5  10   78.37    8.21
   9  -5  10   98.73   12.29
   9   5  10   87.56   10.23
   9  -5  10   78.00   12.69
   9  -5  10   78.48   10.40
   9   5  11  614.39   41.55
   9  -5  11  680.02   34.20
   9   5  11  623.98   33.27
   9   5  11  582.83   38.65
   9  -5  11  654.33   33.76
   9  -5  11  667.70   39.04
   9   5  11  604.70   32.92
   9   5  11  650.78   36.72
   9  -5  11  734.18   42.64
   9  -5  11  572.28   36.11
   9   5  12    8.41    3.79
   9   5  12    3.23    7.17
   9   5  12   13.15    6.24
   9  -5  12   12.18    4.27
   9  -5  12   16.50    6.66
   9   5  12   15.94    6.11
   9  -5  12   20.90    4.41
   9  -5  12   23.24    8.32
   9  -5  12   15.41    5.81
   9   5  12   15.64    4.35
   9   5  13   73.57   12.56
   9  -5  13   53.63    8.86
   9  -5  13   55.16    6.97
   9   5  13   50.81    6.69
   9   5  13   59.29    8.95
   9  -5  13   50.45    6.61
   9  -5  13   67.56   11.60
   9  -5  13   41.30    8.35
   9   5  14   -1.56    5.63
   9  -5  14   -2.58    5.70
   9  -5  14    3.13    4.15
   9   5  14    3.10    4.47
   9  -5  14    2.53    3.05
   9   5  14    4.94    3.53
   9  -5  14    1.03    4.56
   9  -5  14    2.64    2.99
   9  -5  15  102.06    9.62
   9   5  15  126.28   15.42
   9  -5  15  100.51   12.28
   9  -5  15  106.15    9.52
   9   5  15   98.54    9.22
   9  -5  15   83.79   10.57
   9   5  15  108.04   12.21
   9  -5  15   88.64   11.19
   9   5  16   19.36    7.58
   9  -5  16   14.35    5.01
   9   5  16   21.08    5.94
   9  -5  16   13.90    4.10
   9   5  16   15.81    3.96
   9  -5  16   22.40    6.71
   9  -5  16   21.83    6.39
   9   5  17   44.22    8.76
   9  -5  17   50.23    8.06
   9   5  17   44.82    7.84
   9  -5  17   44.22    5.85
   9   5  17   50.05    6.19
   9  -5  17   46.20    7.92
   9   5  18    7.88    5.33
   9   5  18    3.53    4.44
   9   5  18    7.48    3.05
   9  -5  18   10.76    3.36
   9  -5  18   10.59    4.79
   9   5  19   16.58    5.91
   9  -5  19   12.29    4.46
   9  -5  19   13.75    3.32
   9  -5  20  216.65   12.67
   9  -5  20  198.04   13.89
   9  -5  21  226.59   13.64
   9   5  23  136.47    9.08
  -9  -7  29  154.97    9.93
  -9   7  28  322.46   18.68
  -9  -7  28  360.86   19.35
   9  -7 -27  136.25   12.19
  -9  -7  27  172.45   12.01
   9  -7 -26  432.49   27.88
   9  -7 -25   44.64    5.38
   9  -7 -25   47.24    9.89
   9  -7 -24   39.52    5.63
   9  -7 -24   40.57   10.46
   9   7 -23  109.80   14.14
   9  -7 -23   86.64    8.90
   9  -7 -23   81.79   14.75
   9   7 -22  223.68   22.62
   9  -7 -22  222.24   25.34
   9   7 -21   11.98    9.25
   9  -7 -21   10.06    9.72
  -9  -7  20  302.26   20.16
   9   7 -20  370.50   32.60
   9  -7 -20  288.88   33.22
   9   7 -20  293.69   19.96
  -9  -7  19    3.80    3.45
   9  -7 -19   12.71   13.01
   9   7 -19    3.03    3.27
   9   7 -19   15.86    5.07
  -9  -7  18   24.67    5.23
   9  -7 -18   15.74    5.13
   9  -7 -18   34.06   17.42
   9   7 -18   23.47    5.23
   9   7 -18   19.54    6.26
  -9  -7  17  252.77   17.79
   9  -7 -17  305.94   20.03
   9   7 -17  278.43   18.01
   9   7 -17  253.41   20.10
  -9  -7  16  694.00   36.59
   9  -7 -16  659.50   57.18
   9  -7 -16  728.98   38.15
   9   7 -16  716.31   36.32
   9   7 -16  623.47   38.98
  -9  -7  15  176.76   13.85
   9  -7 -15  179.90   27.65
   9   7 -15  199.58   13.88
   9   7 -15  218.54   17.76
   9  -7 -15  203.91   15.32
  -9  -7  14  166.23   12.75
   9  -7 -14  183.43   26.40
   9  -7 -14  179.07   13.68
   9   7 -14  169.66   12.33
   9   7 -14  159.74   15.43
  -9  -7  13   83.86    8.39
   9  -7 -13   89.36    9.31
   9   7 -13   98.14   17.42
   9   7 -13   84.76    7.95
   9   7 -13   93.08   11.66
  -9  -7  12   89.85    8.50
   9   7 -12  102.36   16.91
   9   7 -12   98.60   11.76
   9   7 -12   90.33    7.91
   9  -7 -12   87.09    8.92
  -9  -7  11   15.03    3.73
   9  -7 -11   17.17    4.25
   9   7 -11   17.50    3.46
   9   7 -11   29.25    9.99
   9  -7 -11   17.74    4.41
   9  -7 -11   13.02    7.65
   9   7 -11   16.55    5.97
  -9  -7  10  205.29   14.32
   9  -7 -10  233.21   15.57
   9   7 -10  271.52   25.24
   9  -7 -10  244.50   15.97
   9  -7 -10  270.27   23.82
   9   7 -10  246.41   14.32
   9   7 -10  257.51   19.65
   9  -7  -9   -1.44    5.74
  -9  -7   9    4.20    2.47
   9  -7  -9    4.19    3.06
   9   7  -9    1.99    1.96
   9   7  -9    3.36    5.61
   9  -7  -9    1.24    2.80
   9   7  -9    7.62    4.81
  -9  -7   8   35.61    4.59
   9  -7  -8   28.19    4.93
   9   7  -8   29.83    3.89
   9  -7  -8   46.83    9.50
   9   7  -8   39.74    7.74
   9   7  -8   30.15    8.64
   9  -7  -7   51.31    6.29
   9   7  -7   53.29   10.60
   9  -7  -7   41.68    8.78
   9   7  -7   49.55    4.81
   9   7  -7   54.76    8.70
   9   7  -6   84.64   13.07
   9  -7  -6   86.30   11.11
   9  -7  -6   78.16    7.78
   9   7  -6   63.25    9.25
   9  -7  -5    9.39    3.20
   9   7  -5    7.34    5.86
   9  -7  -5    5.06    2.99
   9  -7  -4  847.56   42.14
   9   7  -4  863.03   50.70
   9  -7  -4  864.96   42.63
   9  -7  -4  849.87   41.96
   9  -7  -3  297.24   18.56
   9   7  -3  299.35   24.94
   9  -7  -3  313.75   18.54
   9  -7  -2  769.84   39.65
   9  -7  -2  800.68   39.55
   9   7  -2  766.06   42.82
   9  -7  -1    3.92    3.79
   9  -7  -1    7.63    3.48
   9   7  -1    4.83    4.07
   9  -7   0  253.37   16.62
   9   7   0  291.25   24.84
   9   7   0  258.23   18.81
   9  -7   1  127.08   11.19
   9  -7   1  142.67   12.04
   9  -7   1  115.05   11.22
   9   7   1  154.50   17.61
   9   7   1  150.85   13.59
   9  -7   2 1190.40   59.75
   9   7   2 1375.19   72.12
   9  -7   2 1225.22   61.21
   9   7   2 1339.36   70.01
   9   7   3   99.57   14.60
   9   7   3   89.21   14.98
   9  -7   3   86.01   10.24
   9   7   4  205.29   22.54
   9   7   4  244.28   22.84
   9  -7   4  238.96   18.31
   9   7   5   70.49   13.23
   9   7   5   77.51   12.68
   9  -7   5   46.49    8.24
   9  -7   6  280.95   26.30
   9   7   6  331.80   30.02
   9   7   6  358.52   28.62
   9   7   6  348.29   22.14
   9  -7   6  397.10   25.25
   9   7   7    7.88    7.39
   9   7   7    8.30    6.82
   9  -7   7   17.73    6.53
   9   7   7   13.36    5.13
   9  -7   7   20.90    7.54
   9   7   8    7.96    7.92
   9   7   8    4.97    5.99
   9   7   8   10.40    4.44
   9  -7   8   16.63    9.10
   9  -7   8    4.52    5.01
   9  -7   9   32.24   10.67
   9   7   9   54.45   11.18
   9   7   9   45.48    7.43
   9  -7   9   40.72    8.23
   9   7  10  118.90   16.14
   9  -7  10  129.54   13.56
   9   7  10  117.43   12.03
   9  -7  10  112.05   17.38
   9   7  11   88.33   10.60
   9   7  11  101.25   14.32
   9  -7  11   91.62   14.80
   9  -7  11   78.48   10.60
   9   7  12   64.96   11.68
   9   7  12   54.16    8.39
   9  -7  12   63.84   11.82
   9  -7  12   69.57   10.10
   9   7  13   11.26    6.81
   9   7  13   18.09    5.27
   9  -7  13    6.99    6.50
   9  -7  13   14.15    5.55
   9   7  14   81.46   14.00
   9   7  14   79.97    9.85
   9  -7  14   88.28   11.84
   9  -7  14   90.19   10.44
   9   7  15  202.43   19.40
   9   7  15  178.18   14.61
   9  -7  15  152.18   14.18
   9   7  16  305.79   23.48
   9   7  16  299.02   19.27
   9  -7  16  235.64   18.39
   9   7  17   57.04    9.82
   9  -7  17   49.84    7.37
   9   7  17   60.19    7.66
   9   7  18    1.93    4.76
   9  -7  18    2.00    3.09
   9   7  18    3.12    3.19
   9   7  19   42.01    5.69
   9   7  20    1.71    2.26
   9   7  21    0.31    1.63
  -9   9  26    1.22    2.04
   9  -9 -25    1.28    2.89
  -9  -9  25    0.35    1.80
   9  -9 -24  357.03   23.66
  -9  -9  24  338.62   19.28
   9  -9 -23   32.97    4.93
   9  -9 -23   30.61    8.36
  -9  -9  23   29.18    5.08
   9  -9 -22 1359.54   72.69
   9  -9 -22 1357.38   62.38
  -9  -9  22 1254.40   62.28
   9  -9 -21    9.07    4.01
   9  -9 -21   10.32    9.14
   9   9 -20  948.56   53.78
   9  -9 -20  944.76   48.37
   9  -9 -20  993.20   64.57
   9  -9 -19   72.29   18.57
   9  -9 -19   60.84    8.32
   9   9 -19   60.24   12.26
   9   9 -18  117.86   17.94
   9  -9 -18  127.66   12.21
   9  -9 -18  133.52   26.14
   9  -9 -17  174.72   14.69
   9   9 -17  180.24   23.30
   9  -9 -17  176.89   30.47
   9   9 -16   -2.58    9.63
   9  -9 -16   -7.47   15.30
   9  -9 -16    0.86    3.96
   9  -9 -15   -0.84    4.07
   9   9 -15   19.24   13.53
   9  -9 -15    3.44    4.23
   9  -9 -15   -3.58   12.93
   9   9 -15    1.07    4.00
   9  -9 -14   16.56    4.97
   9   9 -14   11.38   11.99
   9  -9 -14   18.41    5.02
   9  -9 -14    9.89   13.14
   9   9 -14   11.23    5.23
   9  -9 -13   60.16    8.11
   9   9 -13   39.83    8.33
   9  -9 -13   43.17    7.03
   9  -9 -12  429.31   24.11
   9   9 -12  415.53   39.56
   9  -9 -12  445.36   26.19
   9   9 -12  413.51   28.70
   9  -9 -11    4.22    3.14
   9  -9 -11    4.67    3.36
   9   9 -11    1.25    4.51
   9  -9 -10 1064.11   53.32
   9  -9 -10 1057.55   51.67
   9   9 -10 1145.22   70.14
   9  -9 -10 1104.75   65.61
   9   9 -10 1056.03   58.11
   9   9  -9  163.52   21.67
   9  -9  -9  119.79   10.56
   9  -9  -9  134.69   11.83
   9  -9  -9  135.52   17.69
   9   9  -9  127.88   14.58
   9  -9  -8 1098.94   53.39
   9  -9  -8 1000.33   50.88
   9   9  -8 1115.78   67.10
   9  -9  -8 1048.60   52.32
   9  -9  -8 1070.74   61.62
   9   9  -8 1056.99   57.74
   9  -9  -7   12.53    7.88
   9  -9  -7   17.94    5.40
   9  -9  -7    9.44    3.73
   9   9  -7   10.84    8.89
   9  -9  -7   11.71    4.03
   9   9  -7   19.99    7.41
   9  -9  -6  209.64   20.13
   9   9  -6  212.97   23.74
   9  -9  -6  200.65   15.34
   9   9  -6  236.78   20.23
   9  -9  -6  244.71   16.63
   9  -9  -6  202.02   14.67
   9  -9  -5  190.42   14.64
   9  -9  -5  191.40   13.79
   9   9  -5  173.09   21.71
   9   9  -5  166.11   17.46
   9  -9  -5  175.94   17.86
   9   9  -4   18.48   10.35
   9  -9  -4   28.57    5.87
   9  -9  -4   24.07    5.24
   9   9  -4   22.34    9.85
   9  -9  -4   23.75    7.60
   9   9  -4   21.07    7.59
   9   9  -3   59.27   13.24
   9   9  -3   54.65   13.11
   9  -9  -3   50.54    9.50
   9  -9  -3   33.80    6.76
   9  -9  -3   56.12    7.20
   9   9  -2   41.02   12.15
   9  -9  -2   38.68    6.62
   9  -9  -2   43.54    7.18
   9   9  -2   24.32    9.72
   9  -9  -1  151.76   12.99
   9   9  -1  198.76   22.23
   9  -9  -1  156.11   13.73
   9   9  -1  167.14   21.04
   9  -9  -1  166.69   13.64
   9   9  -1  148.77   15.79
   9  -9   0   94.66    9.77
   9  -9   0   96.64   10.62
   9   9   0   97.75   15.83
   9  -9   0  100.64   10.71
   9   9   0   85.68   14.91
   9   9   0  103.03   13.08
   9   9   1   10.53    8.86
   9  -9   1    4.62    5.04
   9   9   1   -1.24    5.21
   9   9   1    2.05    7.14
   9   9   2  110.85   13.41
   9  -9   2  114.33   12.52
   9   9   2  147.32   19.65
   9   9   3  147.07   21.10
   9   9   3  150.39   15.46
   9   9   4    8.75    8.18
   9   9   4    9.31    5.63
   9   9   5  148.59   15.13
   9   9   5  206.89   23.63
   9   9   5  167.11   20.49
   9   9   6   62.20   13.42
   9   9   6   55.05   13.58
   9   9   6   38.86    7.77
   9   9   7   -6.55   10.33
   9   9   7    9.79    8.66
   9   9   7   -1.02    3.70
   9   9   8   98.49   17.42
   9   9   8   77.44   14.12
   9   9   9  164.06   20.03
   9   9   9  204.58   22.81
   9   9  10  278.49   26.58
   9   9  10  247.09   17.37
   9   9  11   54.81   12.43
   9   9  11   62.05   11.82
   9   9  11   51.27    6.90
   9   9  12  122.42   14.69
   9   9  12  108.41   15.53
   9   9  12   81.35    8.62
   9   9  13   50.69   11.01
   9   9  13   55.45    6.74
   9   9  14    9.11    6.41
   9   9  14    5.15    2.78
   9   9  15   29.89    7.63
   9   9  15    0.89    1.67
   9   9  16   -1.47    1.32
   9 -11 -22   34.02    4.74
   9 -11 -21  159.40   14.19
   9 -11 -20   -1.26    5.71
   9 -11 -19  146.57   11.47
   9 -11 -19  133.20   17.32
   9 -11 -18  103.23    9.88
   9 -11 -18  155.83   21.25
   9 -11 -17  466.96   27.17
   9 -11 -17  542.29   43.42
   9 -11 -16  349.97   21.58
   9  11 -16  325.16   25.91
   9 -11 -16  350.96   36.54
   9  11 -15 1281.32   70.67
   9 -11 -15 1245.93   82.88
   9  11 -14  353.58   31.67
   9 -11 -14  340.32   36.98
   9  11 -13  337.58   32.42
   9  11 -12   30.55   12.61
   9 -11 -12   33.51    6.22
   9 -11 -11   17.35    4.97
   9 -11 -11   11.68    4.24
   9  11 -11   24.21   12.19
  -9 -11  10    6.96    3.87
   9 -11 -10    3.20    3.46
   9 -11 -10   10.79    4.67
   9  11 -10   10.98   10.92
   9 -11 -10    2.39    9.22
   9 -11  -9    2.95    4.03
   9  11  -9   -2.74    9.88
   9 -11  -9    2.43    3.92
   9 -11  -9    8.84    9.55
   9  11  -8   -4.57    9.36
   9 -11  -8    1.65    3.90
   9 -11  -8    2.25    3.62
   9  11  -8    5.34    9.97
   9 -11  -8   -2.06    7.70
   9 -11  -7    0.84    3.80
   9  11  -7    6.93    9.19
   9 -11  -7    1.52    3.36
   9  11  -7   -2.58    9.97
   9 -11  -7    9.64    8.73
   9 -11  -6   75.06    9.39
   9  11  -6   79.59   17.09
   9 -11  -6   63.99    8.49
   9 -11  -6   85.29   14.56
   9  11  -6   80.68   16.03
   9  11  -5  246.05   27.71
   9 -11  -5  275.23   18.85
   9  11  -5  303.94   30.13
   9 -11  -5  329.39   27.00
   9 -11  -5  267.50   19.49
   9 -11  -4  176.75   14.56
   9 -11  -4  224.17   21.55
   9  11  -4  163.53   22.54
   9 -11  -4  193.79   15.50
   9 -11  -4  182.64   14.68
   9  11  -4  226.07   24.98
   9 -11  -3   65.35    8.37
   9 -11  -3   78.57    9.51
   9 -11  -3   74.67    9.63
   9  11  -3   59.33   14.07
   9  11  -3   66.93   14.75
   9 -11  -3   78.14   12.82
   9 -11  -2  145.13   13.46
   9  11  -2  170.99   20.76
   9 -11  -2  117.60   12.29
   9 -11  -2  147.82   16.60
   9  11  -2  131.36   19.14
   9  11  -1  215.69   24.02
   9  11  -1  221.91   24.53
   9 -11  -1  228.10   17.73
   9 -11  -1  244.79   21.02
   9  11   0   37.28   11.31
   9 -11   0   45.20    8.18
   9  11   0   57.68   13.04
   9 -11   0   51.09    9.53
   9  11   1    2.03    7.59
   9  11   1   -6.06    8.03
   9 -11   1    1.02    4.61
   9 -11   1   -1.10    4.10
   9  11   2   19.83   10.34
   9  11   2   21.64    9.52
   9 -11   2   23.68    6.86
   9 -11   2   13.61    5.36
   9  11   3   59.45   12.86
   9  11   3   54.13   11.84
   9 -11   3   41.87    8.86
   9 -11   3   44.98    7.36
  -9 -11  -3   60.37    9.30
   9  11   4   98.41   15.67
   9  11   4   80.47   14.38
   9 -11   4   72.85    8.45
   9  11   5   32.34   10.64
   9  11   6   23.88    9.65
   9  11   7   44.74   10.74
   9  11   8  114.98   14.83
   9  11   9   38.77    9.26
   9  11   9   35.31    8.88
   9  11  10   28.49    7.64
   9  11  10   11.47    5.91
   9  11  11   -1.03    4.65
   9  11  12   11.24    5.36
   9  11  13  204.06   15.15
   9  11  14   41.70    5.73
   9 -13 -15   27.64    8.51
   9 -13 -14    1.53    2.87
   9 -13 -13    2.62    2.91
   9 -13 -12   64.28    6.91
   9 -13 -11  388.58   21.67
   9 -13 -11  356.72   35.06
   9 -13 -10    2.45   10.30
   9 -13 -10    2.57    3.10
   9 -13 -10    3.07    3.03
   9  13 -10    3.47    5.58
   9 -13  -9  557.55   18.50
   9  13  -9  496.34   27.04
   9  13  -8   56.91   11.74
   9 -13  -8   98.54   18.67
   9  13  -7  182.42   21.01
   9 -13  -7  242.00   26.78
   9 -13  -6   -4.13    9.34
  -9 -13   6    1.02    2.61
   9  13  -6    9.08    8.03
   9  13  -5  190.11   21.59
   9 -13  -5  217.72   16.39
   9 -13  -5  237.16   24.10
  -9 -13   5  171.16   12.83
  -9 -13   4    8.07    3.53
   9  13  -4    1.77    7.25
   9 -13  -4    1.73    4.19
   9 -13  -4    8.44    8.47
   9 -13  -3   32.74    9.87
   9  13  -3    8.50    7.37
  -9 -13   2   12.08    4.84
   9  13  -2   20.99    8.12
   9 -13  -2   18.00    7.67
   9  13  -1  319.50   25.39
   9 -13  -1  273.63   21.39
  -9 -13   1  262.69   18.64
  -9 -13   0   81.45    8.64
   9  13   0  113.91   13.75
  -9 -13  -1   95.27    9.14
   9  13   1  111.17   13.34
   9  13   2    2.45    5.28
   9  13   3  179.43   16.52
   9  13   4   85.33   10.74
   9  13   5  227.97   17.55
   9  13   6    9.16    4.19
  10   0 -33    0.38    1.96
 -10   0  31   -0.46    2.53
 -10   0  30   20.77    4.29
 -10   0  30   -0.43    1.24
 -10   0  29    2.51    3.38
 -10   0  28  442.50   25.59
 -10   0  27    2.28    4.02
 -10   0  26    6.40    4.64
 -10   0  25    0.82    4.26
 -10   0  25   -2.11    3.19
  10   0 -25    1.73    7.27
  10   0 -25    3.12    3.45
 -10   0  24   34.48    6.84
 -10   0  24   29.19    5.89
  10   0 -24   30.10    5.96
  10   0 -24   25.70    9.29
 -10   0  23    7.22    4.59
 -10   0  23    3.54    3.55
  10   0 -23    7.09    4.03
  10   0 -23    7.56    8.76
 -10   0  22 1758.02   84.36
  10   0 -22 1742.01   95.88
  10   0 -22 1903.22   85.74
 -10   0  22 1844.12   85.79
 -10   0  21   -1.33    2.93
  10   0 -21    1.46    3.07
  10   0 -21    1.87    7.65
 -10   0  21    2.92    4.29
 -10   0  20  147.09   11.54
  10   0 -20  131.86   10.00
  10   0 -20  152.17   18.91
  10   0 -20  151.52   12.03
 -10   0  20  146.42   12.10
 -10   0  19    4.12    3.17
  10   0 -19    1.30    1.87
  10   0 -19   -0.63    3.05
  10   0 -19    3.48    6.71
 -10   0  19    5.74    4.18
  10   0 -18   25.40    3.80
  10   0 -18   26.61    8.72
  10   0 -18   27.05    4.68
  10   0 -18   28.33    6.67
  10   0 -17    6.36    6.86
  10   0 -17   -0.75    2.04
  10   0 -17   -2.09    2.52
  10   0 -17    0.92    3.98
  10   0 -16   28.88    8.78
  10   0 -16   36.39    4.75
  10   0 -16   27.78    3.71
  10   0 -16   33.47    7.16
  10   0 -15   -0.86    2.04
  10   0 -15   -0.32    1.67
  10   0 -15    0.89    4.20
  10   0 -14  389.36   20.11
  10   0 -14  408.59   21.27
  10   0 -14  456.40   26.33
  10   0 -13    1.08    1.52
  10   0 -13    2.20    2.12
  10   0 -13   -0.86    4.07
  10   0 -12 4681.37  200.37
  10   0 -12 4646.58  201.37
  10   0 -11    0.66    2.05
  10   0 -11    3.61    1.85
  10   0 -10  660.78   30.22
  10   0 -10  631.60   31.01
  10   0 -10  674.13   35.75
  10   0  -9    1.52    1.92
  10   0  -9    2.96    1.79
  10   0  -9    1.48    4.42
  10   0  -8 1663.66   73.16
  10   0  -8 1634.87   73.81
  10   0  -8 1772.11   78.60
  10   0  -7    0.86    1.89
  10   0  -7    1.86    1.70
  10   0  -7    0.63    4.19
  10   0  -6  518.98   28.10
  10   0  -5    0.49    3.15
  10   0  -4 3587.86  159.68
  10   0  -4 3790.10  160.62
  10   0  -3    8.26    2.63
  10   0  -3    5.04    2.79
  10   0  -2 1804.50   86.09
  10   0  -2 1976.68   85.58
  10   0  -2 1994.02   85.23
  10   0  -1    6.73    2.64
  10   0  -1    4.34    2.31
  10   0  -1    2.64    1.97
  10   0  -1    3.42    2.38
  10   0   0  252.91   14.74
  10   0   0  262.24   14.85
  10   0   0  276.01   13.25
  10   0   1    0.74    2.19
  10   0   1   -0.37    2.25
  10   0   1    1.41    0.97
  10   0   2  311.89   17.07
  10   0   2  306.29   16.99
  10   0   3   -0.42    2.15
  10   0   3    1.65    2.49
  10   0   4   58.57    6.32
  10   0   4   64.87    6.33
  10   0   5    0.99    2.80
  10   0   5    3.36    2.70
  10   0   6 1377.40   63.05
  10   0   6 1374.68   63.62
  10   0   6 1291.75   62.65
  10   0   7    2.32    2.86
  10   0   7   -1.58    3.65
  10   0   7    7.78    3.08
  10   0   7    1.72    3.43
  10   0   7    0.63    3.04
  10   0   8  249.97   18.00
  10   0   8  266.39   16.50
  10   0   8  214.75   14.91
  10   0   8  238.01   16.59
  10   0   8  250.73   15.77
  10   0   9    2.56    3.99
  10   0   9    9.23    3.80
  10   0   9    6.39    4.17
  10   0   9    9.90    4.71
  10   0   9    7.04    4.68
  10   0  10 1362.23   61.74
  10   0  10 1459.97   65.17
  10   0  10 1419.13   67.05
  10   0  10 1284.36   64.95
  10   0  10 1417.37   64.38
  10   0  11    5.74    5.23
  10   0  11    1.45    3.22
  10   0  11    1.68    3.54
  10   0  12   29.69    6.03
  10   0  12   27.10    5.54
  10   0  12   42.62    6.34
  10   0  12   29.39    6.72
  10   0  12   24.08    5.58
  10   0  13    1.65    4.58
  10   0  13   -0.73    3.67
  10   0  13   -1.00    4.19
  10   0  13    3.49    4.21
  10   0  13    0.77    3.25
  10   0  14  136.63   13.79
  10   0  14  146.31   13.06
  10   0  14  126.76   12.43
  10   0  14  147.25   12.34
  10   0  14  139.28   12.47
  10   0  15   -0.80    3.27
  10   0  15    3.02    4.12
  10   0  15    0.85    4.04
  10   0  15   -2.03    4.28
  10   0  15   -1.73    4.10
  10   0  16  119.94   11.40
  10   0  16  112.81   10.76
  10   0  16  117.45   12.40
  10   0  16   99.99   10.85
  10   0  17   -0.78    3.44
  10   0  17   -0.74    3.62
  10   0  17   -1.94    5.05
  10   0  17   -2.38    3.68
  10   0  18   90.78    9.48
  10   0  18   96.92   10.97
  10   0  19    4.22    4.68
  10   0  19    0.66    3.17
  10   0  20  593.12   32.23
  10   0  20  568.92   30.57
  10   0  21    8.43    3.50
  10   0  21    6.40    3.62
  10   0  22  549.24   27.04
  10   0  22  494.79   27.25
  10   0  23    8.53    2.99
  10   0  23    3.91    2.41
  10   0  23   10.49    2.77
  10   0  24  300.61   15.73
  10  -2 -32    4.30    3.04
  10   2 -32    7.72    3.34
 -10  -2  31    5.31    2.41
 -10   2  30  575.52   29.61
 -10  -2  30  574.44   29.54
 -10   2  29  393.58   22.60
 -10  -2  29  401.53   22.61
 -10   2  28  428.25   24.83
 -10  -2  28  439.83   24.88
  10  -2 -27  181.15   18.68
 -10   2  27  208.53   14.90
 -10  -2  27  179.16   13.98
  10  -2 -26  758.78   46.67
 -10   2  26  755.99   39.42
 -10  -2  26  710.95   38.75
 -10  -2  25   82.07    9.01
  10   2 -25   68.47    8.79
 -10   2  25   75.51    8.78
 -10  -2  25   81.35    8.97
 -10   2  24    1.61    3.96
 -10  -2  24    0.78    4.00
 -10  -2  24    3.88    3.82
  10   2 -24    6.71    4.36
  10  -2 -24   -3.92    7.33
 -10   2  23   28.62    5.75
 -10  -2  23   14.70    5.29
 -10  -2  23   13.87    4.60
  10  -2 -23   18.07    4.37
  10  -2 -23   20.90   10.12
  10   2 -23   25.89    5.76
 -10   2  22   27.69    5.27
 -10  -2  22   33.69    5.89
  10  -2 -22   32.63   12.47
 -10  -2  22   24.08    5.36
  10  -2 -22   31.62    5.47
  10   2 -22   19.54    5.28
  10   2 -22   24.34    6.23
  10  -2 -21   17.35    4.70
 -10  -2  21   11.59    4.22
 -10   2  21   12.53    3.71
  10  -2 -21    4.66    3.17
  10  -2 -21    6.65    8.57
  10   2 -21   14.81    4.89
 -10   2  21    8.80    4.21
 -10  -2  21   10.70    4.15
  10   2 -21    4.68    4.45
 -10  -2  20   11.71    4.13
 -10   2  20   10.97    3.47
  10  -2 -20   13.70    3.89
  10   2 -20   10.89    7.24
  10  -2 -20   14.55    4.03
  10  -2 -20   15.56   10.52
  10   2 -20    9.55    4.04
 -10   2  20   10.38    4.09
 -10  -2  20   12.12    4.19
  10   2 -20   11.18    4.87
 -10  -2  19   69.87    7.78
 -10   2  19   72.69    7.23
  10   2 -19   72.28    8.01
  10  -2 -19   64.61    7.26
  10   2 -19   71.81   13.43
 -10   2  19   65.94    7.88
  10  -2 -19   48.44   13.94
  10  -2 -19   79.75    8.19
 -10  -2  19   82.38    8.14
  10   2 -19   74.01    9.51
  10  -2 -18  128.27   10.07
  10   2 -18  106.25   15.73
  10  -2 -18  114.87   18.53
  10   2 -18  127.89   10.56
  10  -2 -18  128.39   10.34
  10   2 -18  132.16   12.47
  10  -2 -17   91.18    7.81
  10   2 -17   67.88   13.06
  10   2 -17   83.52    8.12
  10  -2 -17   69.78   14.29
  10  -2 -17   84.55    7.91
  10   2 -17   87.21   10.02
  10   2 -16  353.53   20.60
  10   2 -16  359.02   29.42
  10  -2 -16  372.77   20.34
  10  -2 -16  431.49   34.13
  10  -2 -16  367.67   20.48
  10   2 -16  352.06   23.53
  10  -2 -15  975.59   44.99
  10   2 -15  936.87   45.19
  10  -2 -15  952.69   45.11
  10   2 -15  909.28   48.82
  10  -2 -14  259.06   15.38
  10   2 -14  264.81   15.66
  10  -2 -14  284.85   15.65
  10   2 -14  266.71   18.86
  10  -2 -13  672.23   32.38
  10   2 -13  652.28   32.50
  10  -2 -13  677.33   32.42
  10   2 -13  665.32   36.35
  10  -2 -12  558.24   27.19
  10  -2 -12  543.94   27.16
  10   2 -12  549.18   31.00
  10  -2 -11  649.00   31.21
  10  -2 -11  656.04   31.31
  10   2 -11  635.94   34.96
  10  -2 -10   52.10    4.98
  10  -2  -9  548.59   26.60
  10  -2  -8   76.65    6.09
  10   2  -8   87.86    6.35
  10   2  -8   79.08    8.22
  10  -2  -7  140.81    8.51
  10   2  -7  122.83    8.19
  10   2  -7  123.07   10.38
  10  -2  -6   31.09    3.64
  10   2  -6   27.56    3.33
  10   2  -6   24.59    4.82
  10  -2  -5 1094.49   49.45
  10   2  -5 1072.61   49.02
  10   2  -5 1098.57   51.49
  10  -2  -4  314.90   17.77
  10   2  -4  328.23   18.03
  10  -2  -3  296.45   16.20
  10   2  -3  285.52   16.19
  10   2  -3  282.09   16.89
  10  -2  -2   35.77    4.73
  10   2  -2   47.59    5.19
  10   2  -2   46.70    5.41
  10  -2  -2   40.80    4.56
  10  -2  -1  712.51   32.71
  10   2  -1  650.96   32.24
  10   2  -1  732.55   33.58
  10   2  -1  633.63   33.25
  10  -2  -1  667.24   33.24
  10  -2   0   66.64    5.83
  10   2   0   64.39    5.75
  10   2   0   71.26    5.97
  10   2   0   74.16    6.50
  10  -2   1   52.42    5.20
  10   2   1   54.62    5.31
  10  -2   1   52.09    5.29
  10   2   1   49.76    5.20
  10   2   1   46.00    5.20
  10   2   2  556.79   27.09
  10  -2   2  538.66   26.88
  10   2   2  533.00   26.87
  10  -2   2  501.96   26.65
  10   2   2  555.15   26.64
  10  -2   3 1012.87   45.50
  10   2   3  906.76   45.14
  10  -2   3  974.68   45.30
  10   2   3  907.21   44.96
  10   2   3 1001.63   44.45
  10  -2   4  580.92   28.50
  10   2   4  572.31   28.61
  10  -2   4  532.64   28.10
  10   2   4  531.32   28.08
  10   2   4  566.53   26.90
  10  -2   5  210.44   13.15
  10   2   5  195.20   12.85
  10   2   5  184.28   10.86
  10  -2   5  218.01   13.20
  10   2   5  174.55   12.39
  10  -2   6 1003.80   46.78
  10   2   6  972.75   46.52
  10   2   6  939.92   46.23
  10  -2   6  947.35   46.29
  10  -2   7   29.69    4.76
  10   2   7   19.74    4.38
  10  -2   7   17.04    4.75
  10   2   7   17.95    5.58
  10  -2   7   22.48    5.91
  10  -2   7   24.23    4.41
  10   2   7   16.81    3.81
  10   2   7   18.17    5.32
  10  -2   7   17.74    5.32
  10  -2   8    6.66    2.81
  10   2   8    5.44    2.62
  10   2   8    1.86    4.68
  10  -2   8    3.38    4.32
  10   2   8    3.42    4.54
  10  -2   8    6.59    2.85
  10  -2   8    3.48    3.07
  10   2   8    4.63    3.12
  10  -2   8    2.80    4.22
  10   2   8   -0.79    3.23
  10   2   8    9.84    3.53
  10  -2   8    7.97    4.01
  10  -2   9   39.23    6.22
  10  -2   9   34.83    5.62
  10   2   9   33.40    5.69
  10   2   9   26.55    6.50
  10  -2   9   36.17    6.65
  10   2   9   40.00    8.48
  10  -2   9   28.51    5.37
  10   2   9   29.46    5.49
  10  -2   9   44.63    7.64
  10   2   9   25.37    5.82
  10   2   9   50.75    6.86
  10  -2   9   31.35    6.70
  10  -2  10    3.31    2.93
  10   2  10    6.09    3.14
  10   2  10   10.50    5.76
  10  -2  10   12.17    5.24
  10   2  10   10.13    6.47
  10  -2  10    2.14    3.52
  10   2  10    7.32    3.68
  10  -2  10    5.03    3.04
  10   2  10    1.94    2.93
  10  -2  10    9.66    4.58
  10  -2  10    5.73    4.52
  10   2  11   95.63    9.07
  10   2  11   60.78    7.70
  10   2  11  111.24   12.85
  10  -2  11   64.74    8.14
  10   2  11   75.29   11.32
  10   2  11   61.19    8.09
  10  -2  11   66.21    7.78
  10  -2  11   58.06    9.18
  10  -2  11   66.87    9.47
  10  -2  11   78.58    8.21
  10  -2  12   11.90    4.21
  10   2  12   25.73    5.66
  10   2  12   16.97    7.07
  10  -2  12   17.37    4.97
  10   2  12   11.08    4.73
  10  -2  12   14.00    4.55
  10   2  12   18.86    5.08
  10  -2  12   21.79    6.41
  10  -2  12   22.15    5.90
  10  -2  13  169.94   13.53
  10   2  13  175.28   14.03
  10   2  13  190.75   14.70
  10   2  13  180.02   18.17
  10  -2  13  185.17   13.62
  10   2  13  186.99   13.99
  10  -2  13  165.55   15.29
  10  -2  13  178.10   14.20
  10  -2  13  183.03   16.04
  10  -2  14 1028.20   52.85
  10   2  14 1059.09   53.36
  10   2  14 1133.90   58.68
  10  -2  14 1061.03   52.67
  10   2  14 1079.15   53.08
  10   2  14 1110.28   56.01
  10  -2  14 1045.68   55.52
  10  -2  14 1108.70   56.25
  10  -2  15  154.90   13.04
  10   2  15  169.66   13.49
  10   2  15  161.73   16.25
  10  -2  15  160.42   14.82
  10  -2  15  168.25   12.93
  10   2  15  147.89   14.75
  10  -2  15  194.45   16.10
  10   2  15  139.41   12.37
  10  -2  16  781.68   41.78
  10   2  16  821.10   42.34
  10   2  16  857.96   46.09
  10  -2  16  798.91   41.57
  10   2  16  827.39   42.02
  10  -2  16  824.76   44.19
  10   2  16  809.85   44.73
  10  -2  16  820.08   44.63
  10  -2  17  233.58   17.82
  10   2  17  231.18   16.31
  10  -2  17  239.31   16.35
  10   2  17  253.70   19.18
  10  -2  17  232.82   17.94
  10  -2  18  195.41   14.59
  10  -2  18  215.52   16.64
  10   2  18  232.14   15.33
  10  -2  18  211.85   16.49
  10   2  18  231.62   17.40
  10  -2  19    0.76    3.65
  10   2  19   -0.86    4.24
  10  -2  19    3.63    2.74
  10   2  19    1.21    2.92
  10  -2  19   -0.78    3.85
  10  -2  20   16.34    4.44
  10   2  20    8.44    4.47
  10  -2  20   15.93    3.92
  10   2  20   13.61    3.67
  10  -2  20    3.69    3.67
  10  -2  21   23.49    4.41
  10   2  21   17.53    3.56
  10   2  21   18.40    4.77
  10  -2  21   17.76    3.78
  10  -2  21   14.27    4.05
  10  -2  22  103.72    8.36
  10  -2  22  118.80    8.65
  10   2  22  125.14    8.72
  10   2  22  128.58    9.85
  10  -2  22  107.38    9.11
  10  -2  23    0.27    0.70
  10   2  23    4.57    2.47
  10  -2  23    4.85    2.32
  10   2  24   25.43    3.27
  10   2  24   25.33    3.30
 -10  -4  31   35.39    4.43
  10   4 -30   -0.55    3.54
  10  -4 -30    1.50    2.69
 -10  -4  29    6.54    2.81
 -10   4  29    8.19    2.87
  10  -4 -29    7.21    4.25
 -10   4  29    9.88    3.15
 -10  -4  28    1.03    2.63
 -10   4  28   -1.53    2.86
  10  -4 -28   -3.10    4.89
 -10   4  28    1.74    3.26
 -10  -4  27    2.90    2.96
 -10   4  27    5.75    3.24
  10  -4 -27    5.05    5.45
 -10   4  26   26.54    5.27
 -10  -4  26   17.78    4.49
  10  -4 -26    8.95    6.80
  10  -4 -25  286.59   26.16
 -10   4  25  269.95   18.34
 -10  -4  25  318.53   19.24
 -10   4  24   -0.71    3.54
 -10  -4  24    0.71    3.60
 -10  -4  23 1462.30   73.33
  10  -4 -23 1561.54   74.06
  10  -4 -23 1584.91   87.11
 -10   4  23 1588.57   73.18
 -10  -4  23 1536.81   73.14
  10   4 -23 1501.72   74.56
  10   4 -23 1588.78   74.72
 -10   4  22   51.73    7.34
 -10  -4  22   47.84    6.83
  10  -4 -22   39.64    6.87
  10  -4 -22   30.58   11.52
  10   4 -22   51.59    7.86
  10   4 -22   50.11    7.70
  10  -4 -21  921.71   46.68
  10  -4 -21  955.04   62.47
 -10   4  21  886.13   45.56
 -10  -4  21  920.56   45.74
  10   4 -21  875.41   47.69
 -10   4  20   -0.68    3.51
 -10  -4  20    0.67    3.36
  10  -4 -20    0.75    3.00
  10  -4 -20    2.73   10.54
  10   4 -20    1.95    3.99
  10  -4 -19  815.56   41.58
  10  -4 -19  872.76   60.64
 -10   4  19  809.77   40.90
 -10  -4  19  797.49   40.70
  10   4 -19  780.19   43.60
  10  -4 -18  112.66   22.30
  10  -4 -18  100.53    9.20
 -10   4  18   84.42    8.48
 -10  -4  18   72.20    8.01
  10   4 -18   93.32   10.97
 -10  -4  17   19.30    4.53
  10  -4 -17   16.62    4.09
  10  -4 -17   15.68   12.12
  10   4 -17   23.40    4.92
 -10   4  17   16.90    4.20
 -10  -4  17   13.36    3.79
  10   4 -17   10.70    4.65
  10  -4 -16    8.04    3.05
  10  -4 -16   12.59   12.89
  10   4 -16    8.63    3.58
  10   4 -16    4.79    4.15
  10  -4 -15   86.75    8.17
  10   4 -15   98.54    8.59
  10   4 -15   96.70   10.87
  10  -4 -14    9.19    3.19
  10   4 -14   11.44    3.36
  10   4 -14   14.66    5.25
  10  -4 -13   14.64    3.49
  10  -4 -13   10.34   12.48
  10   4 -13    8.61    2.92
  10   4 -13    8.88    4.39
  10  -4 -12   21.17    4.17
  10  -4 -12   29.33   12.93
  10   4 -12   27.85    4.18
  10   4 -12   26.63    6.35
  10   4 -11  395.63   21.05
  10   4 -11  406.50   24.96
  10  -4 -10   50.09    5.15
  10   4 -10   57.58    5.41
  10   4 -10   45.81    7.45
  10  -4  -9   31.63    4.27
  10   4  -9   36.78    4.29
  10  -4  -8   -0.37    1.98
  10   4  -8    2.02    1.87
  10   4  -7   14.97    2.86
  10  -4  -7   14.97    3.27
  10  -4  -7   20.92    3.38
  10  -4  -6   37.37    4.40
  10  -4  -6   30.45    4.20
  10   4  -6   29.37    4.09
  10  -4  -6   37.37    4.45
  10   4  -6   41.41    4.08
  10   4  -6   21.48    5.22
  10  -4  -5  184.82   11.60
  10   4  -5  185.31   11.55
  10  -4  -5  179.73   11.26
  10  -4  -5  177.98   11.31
  10  -4  -5  173.17   11.42
  10   4  -5  185.39   10.70
  10   4  -5  191.01   13.75
  10  -4  -4    7.32    2.51
  10   4  -4   10.61    2.79
  10  -4  -4    5.14    2.63
  10  -4  -4    5.86    2.68
  10   4  -4    3.14    3.10
  10  -4  -4    7.30    2.61
  10  -4  -3   14.05    3.29
  10   4  -3   12.30    2.94
  10  -4  -3   12.71    3.09
  10  -4  -3   19.12    3.71
  10   4  -3   13.45    4.05
  10  -4  -2    5.77    2.89
  10  -4  -2    8.22    3.04
  10   4  -2    9.57    3.67
  10   4  -1  654.43   33.28
  10  -4  -1  622.84   32.71
  10  -4  -1  645.22   32.35
  10  -4   0   -0.62    3.27
  10   4   0    2.32    2.85
  10  -4   0   -0.76    2.19
  10   4   1   61.59    6.93
  10  -4   1   54.87    7.68
  10  -4   1   77.51    6.43
  10   4   1   65.22    6.07
  10   4   2    2.25    2.66
  10  -4   2    3.37    1.96
  10  -4   2    6.66    2.35
  10   4   2    5.92    2.62
  10   4   2    3.74    2.28
  10  -4   3    8.81    2.67
  10   4   3   14.46    3.39
  10   4   3   13.23    3.61
  10  -4   3   13.75    3.16
  10   4   3   11.06    3.15
  10   4   4    3.38    4.76
  10   4   4    8.81    2.71
  10  -4   4   14.25    5.36
  10  -4   4    7.56    3.18
  10  -4   4   15.56    5.59
  10   4   4    8.36    2.86
  10  -4   4   12.38    4.45
  10  -4   4    9.45    3.37
  10  -4   5   48.57    9.06
  10  -4   5   71.35    6.80
  10   4   5   46.74    8.79
  10  -4   5   53.40    8.73
  10   4   5   52.59    6.02
  10  -4   5   62.37    6.63
  10   4   5   58.78    6.36
  10   4   5   54.71    7.21
  10  -4   5   71.58    8.94
  10   4   6   96.21   11.20
  10  -4   6  124.34   12.15
  10  -4   6  114.72    9.51
  10   4   6  118.28    9.58
  10   4   6  123.07   13.92
  10   4   6  123.53   12.77
  10  -4   6  113.82    9.59
  10   4   6  111.41    9.39
  10  -4   6  113.39   12.53
  10   4   6  126.02   11.54
  10  -4   6  143.25   14.71
  10  -4   6  135.32   12.67
  10   4   7  530.03   33.20
  10  -4   7  521.76   33.02
  10  -4   7  651.89   31.86
  10   4   7  617.17   31.17
  10   4   7  539.86   36.56
  10   4   7  527.13   34.36
  10   4   7  607.53   30.98
  10  -4   7  652.51   31.73
  10   4   7  635.82   33.71
  10  -4   7  560.37   34.82
  10  -4   7  619.15   37.18
  10  -4   7  626.24   35.03
  10   4   8   10.65    4.93
  10  -4   8   19.88    5.99
  10   4   8    1.34    5.17
  10   4   8    1.09    4.59
  10  -4   8    8.19    4.09
  10   4   8    4.76    3.05
  10  -4   8    7.36    5.38
  10   4   8    8.28    4.08
  10  -4   8    4.91    3.46
  10   4   8    6.36    3.36
  10  -4   8    7.32    5.28
  10  -4   8    5.86    4.43
  10  -4   9 1612.80   78.69
  10  -4   9 1752.01   75.14
  10   4   9 1343.43   75.33
  10  -4   9 1556.59   76.61
  10   4   9 1611.75   74.26
  10   4   9 1519.88   81.38
  10   4   9 1517.00   78.74
  10  -4   9 1694.22   74.65
  10   4   9 1638.06   74.15
  10   4   9 1597.06   76.70
  10  -4   9 1604.69   80.69
  10  -4   9 1563.50   78.01
  10   4  10    4.39    4.17
  10  -4  10    9.50    3.54
  10   4  10    6.90    5.45
  10   4  10    0.91    4.04
  10   4  10   11.08    3.89
  10  -4  10    4.22    4.68
  10  -4  10    5.90    3.76
  10   4  10    5.05    3.52
  10  -4  10   11.13    6.66
  10  -4  10   12.23    5.57
  10   4  10    2.91    6.28
  10  -4  11  757.83   39.00
  10   4  11  726.22   38.67
  10   4  11  709.16   45.82
  10   4  11  721.02   42.78
  10  -4  11  759.41   38.86
  10   4  11  740.65   38.49
  10  -4  11  729.05   41.88
  10   4  11  807.26   42.06
  10  -4  11  838.88   45.06
  10  -4  11  760.57   42.32
  10  -4  12    9.73    3.68
  10  -4  12    4.86    5.25
  10   4  12    3.00    6.32
  10   4  12    5.51    3.33
  10  -4  12    6.16    5.34
  10  -4  12    4.01    3.66
  10   4  12   -0.99    4.77
  10   4  12    5.97    3.79
  10  -4  12    4.19    4.74
  10  -4  13  422.31   24.43
  10   4  13  394.39   30.31
  10   4  13  399.60   24.07
  10  -4  13  431.25   27.23
  10  -4  13  406.42   23.99
  10   4  13  414.49   24.05
  10   4  13  432.11   27.28
  10  -4  13  421.22   28.58
  10   4  14    8.66    6.69
  10  -4  14   10.25    4.13
  10  -4  14    3.89    4.31
  10   4  14    5.54    3.68
  10   4  14    8.26    5.29
  10  -4  14    7.87    3.71
  10   4  14    9.93    4.11
  10  -4  14   20.68    6.75
  10  -4  15   84.29    8.90
  10   4  15   79.09    8.73
  10   4  15   95.07    9.20
  10   4  15   83.17   12.55
  10  -4  15   87.51    8.74
  10   4  15   97.80   11.63
  10  -4  15   80.27   10.01
  10  -4  15  102.78   12.05
  10   4  16   30.24    8.16
  10   4  16   27.90    5.36
  10  -4  16   34.39    6.38
  10  -4  16   28.26    5.11
  10  -4  16   23.54    6.66
  10  -4  17   59.04    9.26
  10   4  17   52.28    9.23
  10  -4  17   55.44    7.69
  10  -4  17   52.80    6.53
  10   4  17   43.05    6.17
  10   4  18   -1.99    4.90
  10   4  18    1.60    2.72
  10  -4  18   -0.68    3.22
  10  -4  18   -0.54    2.83
  10  -4  18    2.51    4.04
  10  -4  18    1.74    3.95
  10  -4  19  113.30    9.91
  10  -4  19  143.16   10.00
  10   4  19  126.29    9.62
  10  -4  19  114.66   11.01
  10  -4  19  120.38   11.37
  10   4  20   10.25    4.13
  10  -4  20    7.14    3.82
  10  -4  20    2.90    2.51
  10   4  20    8.48    2.77
  10   4  21  989.22   46.16
  10  -4  21  904.68   44.57
  10   4  22    4.54    2.75
  10  -4  22    6.75    2.36
  10  -4  23  525.34   26.13
  10   4  23  578.27   26.95
 -10  -6  30  177.75   11.08
 -10   6  29  278.84   16.26
 -10  -6  29  331.50   17.83
  10  -6 -28  355.63   22.33
  10  -6 -27  111.84   12.62
  10   6 -26  326.88   22.87
  10  -6 -26  271.24   22.93
  10  -6 -25   10.62    8.55
  10  -6 -24   18.05    4.28
  10  -6 -24   12.40    8.91
  10  -6 -23  158.92   20.78
  10  -6 -22   11.53   10.21
 -10  -6  21  131.35   11.90
  10  -6 -21  138.71   12.94
  10  -6 -21  144.85   22.59
  10   6 -21  125.58   11.99
 -10  -6  21  128.17   10.68
  10   6 -21  124.03   12.95
 -10  -6  20   -0.78    3.12
 -10  -6  20    2.91    2.91
  10  -6 -20   -1.78    4.03
  10   6 -20   -1.59    3.51
  10  -6 -20    2.86    9.58
  10   6 -20    1.02    3.81
 -10  -6  19  330.67   20.97
  10  -6 -19  321.24   21.33
  10  -6 -19  289.65   34.26
  10   6 -19  330.65   20.87
 -10  -6  19  299.85   18.88
  10   6 -19  319.04   22.80
 -10  -6  18  204.14   14.92
  10  -6 -18  193.09   15.07
  10  -6 -18  197.78   28.90
 -10  -6  18  188.04   13.30
  10   6 -18  154.79   15.75
  10   6 -18  216.34   15.03
 -10  -6  17  106.19   10.51
  10  -6 -17  117.68   23.46
  10   6 -17  121.15   10.55
  10   6 -17  119.53   12.96
 -10  -6  16  293.85   18.43
  10   6 -16  263.12   20.66
  10   6 -16  271.00   17.59
  10  -6 -16  223.62   31.94
 -10  -6  15  846.86   42.36
  10   6 -15  813.51   45.95
  10   6 -15  836.06   41.75
 -10  -6  14   51.85    6.52
  10  -6 -14   43.20    6.50
  10   6 -14   43.54    5.78
  10   6 -14   51.32    8.60
  10  -6 -13   20.05    4.38
  10   6 -13   24.62    4.37
  10   6 -13   23.74    6.89
  10  -6 -12    2.11    8.17
  10   6 -12    6.80    2.67
  10  -6 -12    8.59    3.04
  10  -6 -12    7.87    3.22
  10   6 -12    9.55    4.92
  10  -6 -11   54.83    6.52
  10  -6 -11   63.93   12.94
  10  -6 -11   59.45    6.57
  10   6 -11   58.20    9.02
  10   6 -11   56.18    5.78
  10  -6 -10   92.81    7.77
  10  -6 -10   91.76    8.19
  10  -6 -10   85.80    7.38
  10  -6 -10  100.11    8.72
  10   6 -10   96.22    7.59
  10  -6 -10   80.69   13.19
  10   6 -10   97.48   11.76
  10  -6  -9  263.76   15.18
  10  -6  -9  250.85   15.78
  10  -6  -9  252.70   14.91
  10  -6  -9  259.02   16.15
  10  -6  -9  236.82   21.76
  10   6  -9  250.71   14.67
  10   6  -9  263.38   19.50
  10  -6  -8    5.94    2.27
  10  -6  -8    8.41    3.22
  10  -6  -8    6.12    2.65
  10   6  -8    2.59    4.85
  10  -6  -8    8.77    3.15
  10   6  -8    9.38    2.37
  10  -6  -8   12.29    6.06
  10   6  -8   11.57    5.27
  10  -6  -7  268.60   21.11
  10  -6  -7  272.73   16.67
  10  -6  -7  294.85   16.30
  10   6  -7  264.62   21.96
  10  -6  -7  273.45   16.83
  10   6  -7  263.12   15.05
  10  -6  -7  277.27   15.81
  10  -6  -6   12.68    3.81
  10  -6  -6   15.83    3.55
  10   6  -6   18.46    6.76
  10  -6  -6   18.54    4.09
  10  -6  -6   15.15    5.81
  10   6  -6   17.64    3.06
  10  -6  -5  668.13   37.17
  10  -6  -5  645.04   33.32
  10  -6  -5  655.01   33.25
  10  -6  -5  652.23   32.81
  10   6  -4   12.40    4.54
  10  -6  -4    5.11    2.86
  10  -6  -4   13.77    3.91
  10  -6  -3   23.85    4.55
  10   6  -3   24.72    7.42
  10   6  -3   23.55    5.92
  10  -6  -2    9.29    3.48
  10   6  -2    5.03    5.02
  10   6  -2   10.39    4.67
  10  -6  -1  571.25   32.38
  10  -6  -1  644.96   33.00
  10   6  -1  667.04   39.22
  10   6  -1  637.23   35.06
  10  -6   0   65.49    7.59
  10  -6   0   54.96    7.43
  10   6   0   68.27    8.47
  10   6   0   52.23    9.86
  10  -6   0   60.49    7.65
  10  -6   1   43.96    6.56
  10   6   1   44.04   10.31
  10   6   1   46.40    9.65
  10   6   1   34.83    6.89
  10  -6   1   40.95    7.86
  10  -6   1   44.76    7.21
  10  -6   2  254.35   17.94
  10   6   2  223.33   20.68
  10   6   2  249.99   22.69
  10  -6   2  212.95   18.49
  10   6   2  263.51   18.03
  10  -6   2  255.13   17.97
  10  -6   2  253.07   19.88
  10  -6   2  220.69   16.48
  10  -6   3  970.98   48.83
  10   6   3  915.40   52.27
  10  -6   3  912.56   50.14
  10  -6   3  912.78   50.80
  10  -6   3  959.41   48.20
  10  -6   3  839.27   45.48
  10  -6   4   35.80    8.02
  10   6   4   30.08    8.35
  10   6   4   33.35    5.97
  10  -6   4   26.34    7.64
  10  -6   4   33.80    6.98
  10  -6   5  194.89   13.34
  10  -6   5  243.95   17.97
  10   6   5  223.76   20.17
  10  -6   5  219.56   20.34
  10   6   5  217.27   16.13
  10  -6   6   60.99    6.56
  10  -6   6   42.01    9.39
  10   6   6   61.69    8.44
  10  -6   6   62.57   11.76
  10  -6   6   55.83    8.92
  10   6   6   57.36   10.65
  10   6   7    1.42    5.48
  10   6   7   -5.18    7.07
  10  -6   7   -2.91    6.27
  10   6   7    7.85    4.45
  10  -6   7    4.82    6.20
  10  -6   7    1.06    4.70
  10   6   8    1.44    5.20
  10  -6   8    7.37    6.36
  10   6   8   10.52    7.37
  10   6   8    2.72    4.10
  10  -6   8   -1.65    6.95
  10  -6   8    3.23    4.28
  10  -6   8   -0.58    2.84
  10   6   9   37.25   10.39
  10   6   9   39.16    9.52
  10  -6   9   37.86    9.45
  10   6   9   33.65    6.87
  10  -6   9   44.75   10.96
  10  -6   9   38.94    5.85
  10  -6   9   32.33    7.23
  10   6  10   26.63    9.62
  10   6  10   30.36    8.80
  10  -6  10   30.81    8.53
  10   6  10   44.08    7.67
  10  -6  10   45.35   10.79
  10  -6  10   22.00    4.86
  10  -6  10   28.87    7.19
  10   6  11  184.18   21.18
  10  -6  11  250.39   20.68
  10   6  11  223.36   20.42
  10  -6  11  196.43   14.24
  10   6  11  231.33   17.60
  10  -6  11  248.46   21.99
  10  -6  11  197.94   17.58
  10  -6  12  146.94   15.61
  10   6  12  150.21   18.22
  10   6  12  141.49   15.88
  10   6  12  176.69   15.27
  10  -6  12  153.00   11.76
  10  -6  12  168.26   17.77
  10  -6  12  166.97   15.08
  10   6  13  319.09   21.34
  10   6  13  300.14   25.50
  10  -6  13  277.65   21.42
  10  -6  13  269.73   17.24
  10  -6  13  332.05   24.52
  10  -6  13  262.53   20.36
  10   6  14  390.00   29.07
  10  -6  14  353.09   20.38
  10   6  14  381.41   24.47
  10  -6  14  385.20   26.34
  10  -6  14  332.08   23.57
  10   6  15  144.16   16.64
  10   6  15  169.18   14.29
  10  -6  15  155.64   14.53
  10  -6  15  130.48   13.11
  10   6  16  532.60   33.99
  10   6  16  511.51   30.23
  10  -6  16  531.23   30.88
  10  -6  16  520.92   30.58
  10   6  17  389.24   25.59
  10   6  17  363.39   22.29
  10  -6  17  352.51   22.00
  10  -6  17  321.57   21.88
  10   6  18  115.82   12.16
  10   6  18   99.43    9.87
  10  -6  18  107.76    9.51
  10  -6  18  110.02   10.25
  10   6  19    4.06    3.36
  10   6  20   14.73    3.64
  10   6  21  153.55   10.03
  10  -8 -27    1.50    2.46
 -10  -8  27    5.02    2.30
  10  -8 -26    4.76    3.68
 -10  -8  26    9.26    3.34
  10  -8 -25   -1.08    4.67
 -10  -8  25    4.58    3.45
  10  -8 -24   24.83    4.24
  10  -8 -24   31.85    8.83
  10   8 -23    6.59    5.52
  10  -8 -23    7.37    3.25
  10  -8 -23   10.29    7.77
  10  -8 -22  551.20   29.46
  10   8 -22  495.98   35.20
  10  -8 -22  545.39   41.06
  10  -8 -21   -1.45    3.64
  10   8 -21    1.71    7.00
  10  -8 -21    4.90    9.45
  10  -8 -20  163.50   13.49
  10   8 -20  177.52   21.52
  10  -8 -20  127.78   23.11
  10  -8 -19   12.83    4.80
  10   8 -19   11.53   10.21
  10  -8 -19    6.42   12.00
  10  -8 -18  105.13   10.70
  10   8 -18  109.81   20.06
  10  -8 -18   94.24   22.53
 -10  -8  17    9.25    3.98
  10   8 -17   10.61    3.71
  10  -8 -17   18.42    5.09
  10   8 -17   21.77   11.46
  10  -8 -17    5.44    4.13
  10  -8 -17   14.51   14.86
  10   8 -17   17.05    5.75
 -10  -8  16   18.21    4.37
  10  -8 -16    7.18   11.50
  10  -8 -16   15.69    5.06
  10   8 -16    2.79    9.71
  10  -8 -16   13.12    4.50
  10   8 -16   12.69    3.87
  10   8 -16   14.42    5.89
 -10  -8  15    3.41    3.09
  10  -8 -15    1.53    3.46
  10   8 -15   -2.75    8.80
  10  -8 -15    2.53    3.35
  10   8 -15    2.40    3.07
  10   8 -15    1.15    3.99
 -10  -8  14    8.60    3.65
  10  -8 -14   16.40    4.75
  10   8 -14   15.80   11.09
  10  -8 -14   12.17    4.40
  10   8 -14   16.97    3.71
  10   8 -14   14.07    5.80
  10  -8 -13    2.92    3.73
  10   8 -13    4.97    9.29
  10  -8 -13    5.49    3.64
  10   8 -13    2.39    4.61
  10  -8 -12  136.26   11.59
  10   8 -12  129.58   19.67
  10  -8 -12  136.48   12.06
  10  -8 -12  120.76   20.15
  10   8 -12  141.18   14.92
  10  -8 -11   17.03    5.04
  10  -8 -11   16.89    4.00
  10   8 -11   25.92   11.25
  10  -8 -11   14.87    4.43
  10  -8 -11   34.85   11.73
  10   8 -11   17.02    6.03
  10  -8 -10  239.19   16.18
  10  -8 -10  240.68   15.04
  10  -8 -10  259.44   24.75
  10   8 -10  273.55   25.80
  10  -8 -10  214.53   15.82
  10  -8  -9   25.27    4.61
  10  -8  -9   32.87    5.80
  10  -8  -9   13.93    8.14
  10   8  -9   21.97    6.96
  10  -8  -8  813.81   40.73
  10   8  -8  817.79   52.02
  10  -8  -8  849.23   42.29
  10  -8  -8  822.07   49.98
  10   8  -8  792.99   46.35
  10   8  -7    7.12    7.09
  10  -8  -7    7.25    5.94
  10  -8  -7    2.35    2.66
  10  -8  -7    4.85    3.54
  10   8  -7    1.21    4.53
  10  -8  -6  201.78   13.98
  10   8  -6  185.40   20.41
  10  -8  -6  193.98   14.49
  10  -8  -6  192.71   19.00
  10   8  -6  226.53   18.74
  10  -8  -5   19.56    4.58
  10  -8  -5   15.94    4.90
  10   8  -5   19.03    8.21
  10  -8  -5   17.68    6.49
  10  -8  -4  206.01   15.47
  10  -8  -4  220.04   15.20
  10   8  -4  211.39   21.77
  10  -8  -4  221.29   18.99
  10  -8  -3    2.26    3.48
  10  -8  -3    0.70    3.18
  10   8  -3   -1.75    5.85
  10  -8  -3   11.25    5.64
  10   8  -3    2.33    4.77
  10   8  -2  142.78   17.44
  10  -8  -2  130.98   11.69
  10   8  -2  123.76   17.35
  10  -8  -2  133.96   11.74
  10  -8  -2  109.68   12.78
  10   8  -2  130.23   13.97
  10  -8  -1   48.83    7.09
  10   8  -1   74.26   14.17
  10  -8  -1   48.29    7.46
  10  -8  -1   45.85    7.38
  10   8  -1   73.06   10.16
  10  -8   0  188.58   14.86
  10   8   0  186.43   21.71
  10   8   0  180.94   16.74
  10  -8   0  214.18   15.93
  10  -8   0  193.73   15.58
  10  -8   1    6.13    3.78
  10   8   1   -1.98    7.40
  10  -8   1   11.32    5.84
  10   8   1    3.35    4.45
  10  -8   2   40.15    8.23
  10   8   2   47.77   11.65
  10   8   2   60.43   13.46
  10   8   2   41.84    8.17
  10   8   3    8.20    7.91
  10  -8   3    5.63    5.76
  10   8   3   -1.85    7.35
  10   8   3    4.32    4.43
  10   8   4  123.37   17.31
  10   8   4  164.58   20.48
  10   8   4  124.47   13.20
  10   8   5    5.49    8.29
  10   8   5    6.32    9.75
  10   8   5    9.20    4.54
  10   8   6    2.11    7.07
  10   8   6    5.45    7.65
  10   8   6    1.97    4.14
  10   8   7   -1.79    6.90
  10   8   7   -2.11    9.10
  10   8   7    1.87    4.04
  10   8   8   62.52   14.17
  10   8   8   54.14   12.07
  10  -8   8   69.87    9.97
  10   8   8   59.09    8.29
  10   8   8   57.37    7.80
  10   8   9    2.03    7.86
  10   8   9   13.47    7.63
  10   8   9   10.94    4.55
  10  -8   9   13.05    5.95
  10   8  10  769.78   49.02
  10   8  10  765.41   45.92
  10  -8  10  729.19   40.56
  10   8  10  646.70   37.24
  10   8  11    3.80    3.38
  10   8  11   17.90    7.62
  10  -8  11    7.92    5.15
  10   8  12    9.53    4.48
  10   8  12    2.71    5.84
  10  -8  12    0.92    3.89
  10   8  13   -2.08    3.28
  10   8  14  176.37   13.28
  10   8  15   42.40    9.14
  10   8  15   31.22    5.54
  10   8  16  210.15   13.91
  10   8  16  226.64   18.13
  10   8  17    4.07    4.44
  10   8  17    0.85    2.20
  10   8  18   21.99    3.52
  10  -8  19   15.57    2.84
  10 -10 -24   63.65    7.17
  10 -10 -23   96.58   10.83
  10 -10 -22   28.93    7.90
  10 -10 -21  154.83   11.51
  10 -10 -21  131.73   17.08
  10 -10 -20   53.47    6.99
  10 -10 -20   45.42   12.40
  10 -10 -19    2.14    3.51
  10  10 -19    7.53    6.41
  10  10 -18   81.48   13.86
  10 -10 -18  112.54   10.72
  10 -10 -18  104.01   20.40
  10 -10 -17  136.82   12.28
  10  10 -17  135.49   18.56
  10 -10 -17   97.17   21.46
  10 -10 -16  216.21   16.18
  10  10 -16  242.77   26.27
  10 -10 -16  175.54   28.97
  10 -10 -15   44.71    7.67
  10  10 -15   60.31   15.47
  10 -10 -14    5.70    3.86
  10  10 -14    8.08    9.37
  10 -10 -13   35.80    6.67
  10  10 -13   22.19   11.75
  10  10 -12   -5.56    9.30
  10 -10 -12   -2.75   11.56
  10  10 -11   29.84   12.63
  10 -10 -11   20.12   12.46
  10 -10 -11   35.71    5.80
  10 -10 -10   51.70    6.94
  10  10 -10   31.46   12.83
  10 -10 -10   57.50   15.21
  10  10 -10   56.20    9.84
  10 -10  -9  216.72   16.08
  10  10  -9  211.71   25.88
  10 -10  -9  218.75   15.35
  10  10  -9  172.88   24.73
  10 -10  -9  215.06   24.52
  10  10  -9  203.68   19.25
  10  10  -8  258.09   22.44
  10 -10  -8  276.81   19.08
  10  10  -8  293.41   29.67
  10  10  -8  305.42   30.26
  10 -10  -8  313.68   27.83
  10 -10  -8  227.15   17.04
  10 -10  -7  144.61   12.34
  10  10  -7  135.82   20.86
  10 -10  -7  164.37   13.68
  10  10  -7  124.98   19.86
  10 -10  -7  150.47   19.02
  10  10  -7  160.56   16.69
  10 -10  -6   12.90    5.02
  10 -10  -6   10.99    4.40
  10 -10  -6   11.86    7.87
  10  10  -6   19.21    7.28
  10  10  -6   33.70   11.49
  10  10  -6   15.66    9.18
  10 -10  -5   71.61    9.17
  10 -10  -5   60.52    8.03
  10  10  -5   52.84   13.88
  10 -10  -5   63.53   11.89
  10  10  -5   80.81   15.30
  10  10  -5   61.87   11.04
  10  10  -4    2.17    8.10
  10 -10  -4    1.78    4.21
  10 -10  -4    4.72    3.65
  10  10  -4    2.14    7.43
  10 -10  -4    2.98    6.27
  10 -10  -3   29.19    6.20
  10  10  -3   36.35   11.24
  10 -10  -3   37.16    6.69
  10 -10  -3   48.01    8.18
  10 -10  -3   46.02    9.76
  10 -10  -2   90.54   10.12
  10 -10  -2  102.48   13.16
  10  10  -2   87.01   16.20
  10 -10  -2   84.64   10.07
  10  10  -2   95.36   16.22
  10 -10  -2   95.97   10.93
  10  10  -2   84.19   12.36
  10 -10  -1   47.73    7.21
  10 -10  -1   51.03    8.31
  10  10  -1   42.13   11.50
  10  10  -1   51.17   12.81
  10 -10  -1   49.03    9.16
  10  10  -1   42.16    9.12
  10  10   0    2.10    8.35
  10  10   0    6.09    7.84
  10 -10   0    2.18    4.08
  10 -10   0    0.99    4.49
  10  10   0    1.29    4.66
  10  10   1  244.29   25.24
  10  10   1  211.27   23.51
  10 -10   1  211.61   17.74
  10  10   1  226.48   20.17
  10 -10   1  250.07   19.08
  10 -10   2  427.34   27.77
  10 -10   2  485.08   30.76
  10 -10   3  193.27   15.60
  10  10   3  259.94   25.71
  10 -10   3  232.93   19.87
  10  10   4   69.27   14.35
  10  10   5   15.97    8.84
  10  10   5    3.71    7.82
  10  10   6   87.28   15.53
  10  10   6  108.69   16.02
  10  10   7   14.87    9.73
  10  10   7   45.74   11.03
  10  10   8  154.25   18.63
  10  10   8  120.12   16.06
  10  10   9  142.95   17.67
  10  10   9  172.05   18.02
  10  10  10    1.48    6.83
  10  10  10   -2.59    5.59
  10  10  11   72.23   11.69
  10  10  11   62.96   10.23
  10  10  12    5.70    6.23
  10  10  13   -1.92    4.91
  10  10  14  208.81   15.83
  10  10  15   22.84    5.18
  10 -12 -19   55.62    8.22
  10 -12 -18    1.17    5.87
  10 -12 -17  111.07   15.09
  10 -12 -16    3.66    8.09
  10  12 -14    7.28    6.73
  10  12 -13  137.50   16.69
  10  12 -12    5.49    7.72
  10 -12 -12   20.29    4.75
  10 -12 -12   10.27   11.37
  10 -12 -11    3.46    2.99
  10  12 -11   -4.10    7.92
  10 -12 -11    7.70   12.13
  10 -12 -10   30.54    5.80
  10  12 -10   35.01   12.20
  10 -12 -10   27.64   12.90
  10 -12  -9   -0.71    3.77
  10 -12  -9   -0.73    3.59
  10 -12  -9   -9.66   12.12
  10  12  -9    2.24    8.93
  10 -12  -8   -0.70    3.64
  10 -12  -8    0.75    3.38
  10 -12  -8   -0.87    4.27
  10  12  -8   -2.24    8.65
  10 -12  -8  -13.84   11.78
 -10 -12   8    0.59    2.71
  10 -12  -7   25.29    5.32
  10 -12  -7   26.18   11.20
  10 -12  -7   27.59    5.99
  10 -12  -7   25.41    6.21
  10 -12  -6   32.38    5.66
  10  12  -6   32.92   10.10
  10 -12  -6   36.99    7.33
  10 -12  -6   35.31    6.65
  10  12  -6   54.89   13.45
  10 -12  -6   53.10   13.60
  10 -12  -5   -1.25    1.91
  10  12  -5   33.61   10.51
  10 -12  -5   29.28    6.90
  10  12  -5   24.32    9.97
  10 -12  -5   32.19   10.81
  10  12  -4    5.59    8.05
  10  12  -4    3.88    8.16
  10 -12  -4    1.73    7.26
  10 -12  -4    1.80    4.08
  10  12  -3  168.90   20.25
  10 -12  -3  174.11   15.08
  10 -12  -3  170.46   18.53
  10  12  -3  152.28   19.49
  10  12  -2   -1.79    7.52
  10  12  -2   -1.78    7.07
  10 -12  -2   -2.74    5.76
  10 -12  -2    3.76    4.53
  10  12  -1    8.65    7.83
  10  12  -1   -1.71    6.59
  10 -12  -1    2.38    5.63
  10 -12  -1    0.96    4.37
  10  12   0    3.32    6.80
  10  12   0   21.19    9.18
  10 -12   0    5.07    4.70
 -10 -12   0    4.39    4.32
  10  12   1   94.67   13.97
  10  12   1   79.48   12.95
 -10 -12  -1   73.77    8.90
  10  12   2   10.42    7.61
  10  12   2    1.48    6.39
  10  12   3   29.34    8.44
  10  12   3   40.35    9.60
  10  12   4   65.52   10.96
  10  12   4   53.59   10.40
  10  12   5   90.09   12.24
  10  12   6   12.59    5.84
  10  12   7   21.18    6.10
  10  12   8    2.36    4.16
  10  12   8    2.49    3.93
  10  12   9  320.73   20.04
  10  12  10  108.57    9.04
  11   1 -33   13.70    2.96
  11  -1 -32   46.15    5.97
  11   1 -32   34.61    5.43
 -11  -1  31   99.46    7.75
 -11   1  31  105.25    8.54
 -11   1  30   21.06    4.51
 -11   1  29    3.73    3.56
 -11   1  28   58.43    7.46
  11  -1 -27   69.51   12.08
 -11   1  27   73.90    8.76
 -11   1  26   51.63    7.38
  11  -1 -26   58.86   12.14
 -11   1  25   40.01    7.10
 -11  -1  25   38.06    6.20
  11  -1 -25   35.11   10.68
  11   1 -25   38.97    6.52
  11  -1 -24   10.38    4.39
 -11   1  24   12.27    4.13
 -11  -1  24    8.30    3.82
 -11   1  24   14.53    4.11
  11  -1 -24   21.61    9.49
  11   1 -24   12.31    4.64
 -11   1  23    8.83    4.59
 -11  -1  23    6.75    3.90
 -11   1  23    5.29    3.50
  11   1 -23    1.83    7.27
  11  -1 -23    2.03    8.77
  11   1 -23    4.87    3.60
  11  -1 -23    4.01    3.47
 -11  -1  22    1.46    3.16
 -11   1  22    0.65    2.88
  11   1 -22    3.64    6.80
  11  -1 -22   -2.04    7.38
  11   1 -22    0.79    3.22
  11  -1 -22    4.72    3.40
 -11   1  22    2.32    3.73
 -11  -1  21    4.22    3.47
 -11   1  21    3.78    2.92
  11   1 -21    1.79    6.68
  11  -1 -21    6.82    3.11
  11  -1 -21   12.09    9.12
  11   1 -21    0.75    3.46
  11  -1 -21    0.75    3.17
 -11   1  21    2.21    3.76
  11   1 -21    4.06    4.90
 -11  -1  20    2.67    3.53
 -11   1  20   -0.60    2.72
 -11   1  20    0.69    3.35
  11   1 -20   10.45    7.52
  11  -1 -20    2.73    2.58
  11  -1 -20    3.92    6.82
  11   1 -20    3.49    3.37
  11  -1 -20    2.12    2.98
  11   1 -20    7.06    4.87
  11   1 -19   43.92   11.47
  11  -1 -19   60.28   12.85
  11   1 -19   63.21    7.36
  11  -1 -19   64.79    7.49
  11  -1 -19   55.23    6.43
  11   1 -19   73.85    9.78
  11  -1 -18    3.61    7.19
  11   1 -18    9.81    7.24
  11  -1 -18    5.80    2.70
  11   1 -18   10.04    3.62
  11  -1 -18    7.79    3.49
  11   1 -18   10.84    5.22
  11  -1 -17    4.38    2.84
  11   1 -17   -1.58    6.11
  11  -1 -17    0.45    2.13
  11  -1 -17    5.19    6.25
  11   1 -17    3.23    2.71
  11   1 -17    7.78    5.06
  11  -1 -16   18.13    6.31
  11  -1 -16   16.74    3.49
  11   1 -16   16.98    2.61
  11   1 -16   22.14    4.02
  11  -1 -16   16.52    3.79
  11   1 -16   25.89    6.32
  11  -1 -15  284.75   15.99
  11   1 -15  284.66   16.55
  11   1 -15  281.31   14.65
  11  -1 -15  285.76   16.60
  11   1 -15  304.85   20.97
  11  -1 -14    7.62    2.29
  11   1 -14    6.21    1.74
  11   1 -14    7.58    2.77
  11  -1 -14    8.16    2.86
  11   1 -14    6.34    4.29
  11  -1 -13    2.83    2.14
  11  -1 -13    0.34    1.68
  11   1 -13    3.86    1.55
  11   1 -13    2.38    2.03
  11  -1 -12   76.01    6.14
  11   1 -12   89.69    6.89
  11  -1 -12   91.47    7.10
  11  -1 -12   96.51   11.44
  11   1 -12   76.95    5.45
  11  -1 -11  219.06   12.40
  11   1 -11  219.18   11.48
  11   1 -11  238.49   13.15
  11  -1 -11  208.69   12.76
  11  -1 -11  198.01   17.54
  11  -1 -10  791.92   36.11
  11   1 -10  738.37   36.47
  11  -1 -10  769.90   36.78
  11   1 -10  788.60   40.54
  11  -1 -10  829.36   43.24
  11  -1  -9   68.07    5.41
  11   1  -9   60.78    5.64
  11   1  -9   62.99    7.84
  11  -1  -9   73.62    9.38
  11  -1  -8   95.31    6.79
  11   1  -8   95.99    9.14
  11  -1  -8   96.10   10.53
  11  -1  -7   23.85    3.36
  11   1  -7   36.32    5.84
  11  -1  -7   30.05    6.13
  11   1  -6  359.61   21.45
  11  -1  -6  424.24   22.93
  11   1  -5  322.26   18.14
  11   1  -5  298.32   18.75
  11   1  -4  810.75   41.05
  11   1  -4  889.33   41.62
  11  -1  -4  910.40   41.24
  11   1  -3   91.51    7.95
  11   1  -3   97.26    7.78
  11  -1  -3  112.85    7.23
  11   1  -2 1172.34   52.69
  11   1  -2 1131.80   51.51
  11   1  -2 1169.97   51.50
  11  -1  -2 1070.35   49.53
  11   1  -1  248.69   13.86
  11   1  -1  220.34   12.82
  11   1  -1  226.01   14.35
  11   1   0  189.96   11.64
  11  -1   0  180.12   11.54
  11   1   0  174.79   11.37
  11   1   0  182.81   10.43
  11   1   1  523.97   25.75
  11   1   1  496.20   25.57
  11   1   1  495.24   23.72
  11   1   2  287.90   16.06
  11   1   2  276.69   15.90
  11   1   2  265.27   13.39
  11   1   3   43.72    5.26
  11   1   3   42.61    5.31
  11   1   4  233.64   14.49
  11   1   4  221.45   14.24
  11   1   5  596.34   30.10
  11   1   5  564.07   30.00
  11   1   6  242.12   14.87
  11   1   6  191.98   14.71
  11   1   6  205.45   16.40
  11  -1   6  185.94   15.33
  11   1   6  216.57   14.28
  11  -1   6  237.15   17.49
  11   1   6  232.13   16.80
  11  -1   6  213.93   16.06
  11   1   7    4.33    3.19
  11  -1   7    6.87    3.99
  11   1   7   18.92    5.31
  11   1   7   10.14    3.38
  11  -1   7   11.30    5.00
  11   1   7   10.22    4.52
  11  -1   7    3.31    3.85
  11   1   8 1534.49   62.99
  11   1   8 1105.14   59.85
  11  -1   8 1084.95   60.83
  11   1   8 1264.16   64.21
  11   1   8 1467.15   62.41
  11  -1   8 1401.15   65.73
  11  -1   8 1418.90   64.73
  11   1   9  115.54   10.52
  11   1   9   88.60    9.71
  11  -1   9   87.89    9.04
  11   1   9   89.88   11.05
  11   1   9   96.98   10.60
  11  -1   9  109.42   11.72
  11  -1   9  108.10   11.96
  11   1  10  976.99   44.11
  11  -1  10  746.96   40.14
  11   1  10  762.69   44.40
  11   1  10  915.42   43.39
  11  -1  10  879.08   46.24
  11   1  10  821.19   43.54
  11  -1  10  862.30   45.18
  11   1  11   23.42    5.22
  11  -1  11   23.42    6.57
  11   1  11   10.42    4.82
  11  -1  11   18.90    5.96
  11   1  11   13.69    4.47
  11   1  12   63.71    8.42
  11   1  12   70.26    8.51
  11  -1  12   47.99    8.45
  11   1  12   72.66    9.75
  11  -1  12   75.64    9.78
  11   1  13    5.51    3.40
  11   1  13    1.50    3.41
  11  -1  13    4.10    4.20
  11   1  13    8.91    5.23
  11  -1  13    0.96    4.54
  11   1  14  509.13   28.99
  11   1  14  503.67   29.20
  11  -1  14  523.18   31.43
  11   1  14  508.09   31.23
  11  -1  14  498.54   30.53
  11   1  15  574.27   30.25
  11  -1  15  496.00   31.13
  11   1  15  469.28   28.60
  11   1  15  503.31   31.10
  11  -1  15  524.81   30.82
  11   1  16  227.75   16.99
  11  -1  16  221.10   17.55
  11   1  16  261.78   17.30
  11   1  16  255.67   19.19
  11  -1  16  259.14   18.98
  11   1  17    8.44    4.80
  11  -1  17    6.38    4.58
  11   1  17    6.95    4.04
  11  -1  18   40.19    7.43
  11   1  18   56.53    7.07
  11   1  18   49.97    8.12
  11  -1  19    2.99    3.69
  11   1  19    7.10    4.25
  11   1  19    9.48    3.76
  11  -1  20  128.83   10.79
  11   1  20  117.86    9.71
  11   1  20  129.31   11.19
  11  -1  21  145.46    9.05
  11   1  21  158.97    8.66
  11   1  21  159.08    9.87
  11  -1  21  149.04    9.43
  11   1  22  205.64   11.82
  11   1  22  179.97   12.12
  11  -1  22  208.22   12.49
  11   1  23   36.29    4.20
  11  -1  23   36.37    4.14
  11   1  23   33.37    4.12
  11  -3 -31   32.51    5.20
  11   3 -31   35.06    5.54
 -11  -3  31   35.99    4.66
 -11  -3  30   31.67    4.69
 -11   3  30   32.70    4.75
 -11   3  29  475.46   25.61
 -11  -3  29  476.29   25.50
  11  -3 -28   45.79    9.43
 -11   3  28   65.64    7.44
 -11  -3  28   65.20    7.29
  11  -3 -27   98.55   14.08
 -11   3  27  116.72   10.30
 -11  -3  27  115.42   10.12
 -11   3  26   -0.72    3.92
 -11  -3  26    1.41    3.53
  11  -3 -26    4.91    6.70
 -11   3  25   21.80    5.54
 -11  -3  25   25.77    5.62
 -11   3  24   18.47    4.71
 -11  -3  24    9.02    4.31
 -11  -3  24   10.21    4.37
  11  -3 -24    6.67    3.52
  11  -3 -24   14.39    9.31
  11   3 -24    2.58    3.73
 -11  -3  23   81.21    9.21
  11  -3 -23  101.24    9.99
  11  -3 -23   64.51   14.87
  11   3 -23   75.18    9.61
 -11   3  23   87.72    9.62
 -11  -3  23  104.46   10.18
  11   3 -23   86.49   10.43
 -11   3  22   45.94    7.05
 -11  -3  22   30.13    6.20
  11  -3 -22   41.24    6.52
 -11  -3  22   47.44    7.07
  11  -3 -22   56.64   14.34
  11   3 -22   45.86    7.55
  11   3 -22   46.70    8.00
 -11  -3  21    5.29    3.95
  11  -3 -21   15.28    4.67
  11  -3 -21    9.86    8.91
  11   3 -21    8.22    4.43
 -11   3  21   12.36    4.61
 -11  -3  21    7.07    4.00
  11   3 -21    4.95    4.49
 -11  -3  20  224.97   16.32
  11  -3 -20  266.29   29.01
  11  -3 -20  254.61   16.63
  11   3 -20  232.51   17.01
 -11   3  20  237.29   16.25
 -11  -3  20  242.01   16.23
  11   3 -20  204.09   17.56
 -11  -3  19    5.51    3.46
  11  -3 -19    3.76    2.97
  11  -3 -19    5.23    3.28
  11  -3 -19   -2.58    9.33
  11   3 -19    3.66    3.53
 -11   3  19    3.27    3.22
 -11  -3  19    1.91    3.01
  11   3 -19    2.03    3.92
  11  -3 -18    4.10    2.95
  11  -3 -18   14.09    3.80
  11  -3 -18   13.01   12.05
  11   3 -18    4.75    3.22
  11   3 -18    7.05    4.77
  11  -3 -17   15.60   11.23
  11  -3 -17   12.02    3.43
  11  -3 -17    5.45    2.66
  11   3 -17   18.85    5.68
  11  -3 -16  146.64   10.71
  11   3 -16  130.71   13.14
  11  -3 -15    7.60    3.06
  11   3 -15    1.87    3.95
  11  -3 -14   12.96    3.26
  11  -3 -14    9.84   10.09
  11   3 -14   17.13    5.40
  11  -3 -13  338.77   33.45
  11  -3 -13  364.17   19.86
  11   3 -13  343.14   19.57
  11   3 -13  373.99   23.39
  11  -3 -12    7.77    2.37
  11   3 -12    6.42    2.91
  11  -3 -12    4.82    2.56
  11   3 -12   13.15    4.90
  11  -3 -11    9.55    2.55
  11  -3 -11   11.38    3.14
  11   3 -11   15.35    3.11
  11  -3 -10  589.56   28.69
  11   3 -10  609.17   29.44
  11  -3 -10  596.59   29.56
  11  -3  -9  220.63   12.67
  11  -3  -9  225.02   13.46
  11   3  -9  226.71   13.14
  11  -3  -8    2.30    2.29
  11   3  -8    4.18    2.21
  11   3  -8    3.33    3.22
  11  -3  -8    0.97    1.65
  11  -3  -7  163.01    9.97
  11   3  -7  151.82    9.82
  11   3  -7  161.83   12.34
  11  -3  -6  196.30   12.37
  11   3  -6  209.97   12.59
  11  -3  -6  188.37   11.67
  11   3  -6  212.79   11.88
  11   3  -6  183.11   13.60
  11  -3  -5  189.61   11.83
  11   3  -5  178.80   11.74
  11  -3  -5  174.53   11.12
  11   3  -5  189.72   13.17
  11  -3  -4  318.36   18.78
  11   3  -4  367.38   19.35
  11  -3  -4  332.81   18.44
  11   3  -4  359.71   20.31
  11  -3  -3  303.41   17.31
  11   3  -3  306.38   17.44
  11  -3  -3  286.20   16.71
  11   3  -3  287.84   17.76
  11  -3  -2    0.50    2.30
  11  -3  -2   -0.47    2.54
  11   3  -2    2.69    2.98
  11   3  -1  104.87    8.86
  11  -3  -1  111.86    8.24
  11  -3   0   12.89    3.02
  11   3   0   15.58    3.98
  11   3   0   11.22    2.74
  11   3   1 1036.60   50.78
  11  -3   1 1088.92   50.85
  11   3   1 1099.66   50.96
  11   3   1 1142.53   51.61
  11  -3   1 1095.00   50.96
  11  -3   2   74.33    6.83
  11   3   2   99.45    7.65
  11   3   2   81.22    7.35
  11  -3   2   77.91    7.17
  11   3   2   87.97    7.42
  11  -3   3 2545.51  111.23
  11   3   3 2492.71  111.04
  11   3   3 2451.01  111.01
  11  -3   3 2561.00  111.26
  11   3   3 2456.71  110.48
  11  -3   4  285.35   18.15
  11   3   4  324.98   18.63
  11  -3   4  300.49   18.36
  11   3   4  338.73   18.84
  11  -3   4  303.38   21.55
  11   3   4  316.52   17.62
  11  -3   4  324.45   21.49
  11  -3   5  504.18   27.15
  11   3   5  517.96   30.92
  11  -3   5  525.49   30.24
  11  -3   5  544.29   27.54
  11   3   5  504.77   27.05
  11   3   5  454.91   30.98
  11   3   5  513.91   27.09
  11  -3   5  534.06   31.13
  11   3   5  478.13   25.29
  11   3   5  502.70   29.12
  11  -3   5  585.36   31.21
  11  -3   6  100.37    8.90
  11   3   6   93.17    8.41
  11   3   6   88.54   10.74
  11  -3   6   74.81    9.86
  11  -3   6  111.54    9.05
  11   3   6   85.18    8.27
  11   3   6   68.83   10.53
  11   3   6   82.08    9.49
  11  -3   6   90.53   10.81
  11  -3   6  115.46   11.65
  11  -3   7    2.84    3.16
  11   3   7   -2.00    5.70
  11  -3   7    1.85    4.99
  11  -3   7    5.94    4.69
  11   3   7    7.17    5.54
  11  -3   7   13.00    3.49
  11   3   7   12.58    3.57
  11   3   7    2.43    3.68
  11  -3   7   12.66    3.50
  11   3   7    4.67    2.77
  11  -3   7    4.81    4.46
  11   3   8   12.22    5.57
  11  -3   8    9.49    4.50
  11  -3   8    9.09    3.67
  11   3   8    8.84    3.47
  11   3   8   10.11    6.23
  11  -3   8    5.05    5.26
  11   3   8    4.21    3.74
  11  -3   8    6.92    3.66
  11   3   8   15.95    4.20
  11  -3   9   85.19    8.64
  11   3   9   81.66    8.55
  11   3   9   88.44   11.31
  11  -3   9   89.14   10.52
  11   3   9   88.53    8.76
  11   3   9   80.91   12.35
  11  -3   9   98.66    9.17
  11  -3   9   82.26   10.59
  11   3   9   73.46    9.49
  11  -3  10  361.72   22.68
  11   3  10  374.77   22.74
  11   3  10  382.76   25.89
  11  -3  10  461.58   25.88
  11   3  10  349.66   27.33
  11  -3  10  383.73   22.73
  11   3  10  412.02   23.13
  11  -3  10  359.71   25.10
  11   3  10  357.86   24.40
  11   3  11   22.27    7.83
  11  -3  11   23.68    5.33
  11   3  11   22.75    5.12
  11  -3  11   24.50    6.74
  11  -3  11   28.86    5.54
  11   3  11   17.91    6.11
  11   3  11   30.79    5.68
  11  -3  12    8.42    3.68
  11   3  12   11.60    4.22
  11   3  12   24.93    8.14
  11  -3  12   13.14    5.62
  11  -3  12   10.12    3.59
  11   3  12   17.54    5.81
  11   3  12   12.53    4.16
  11  -3  12    3.20    4.14
  11  -3  13  553.85   33.83
  11  -3  13  581.50   31.56
  11   3  13  558.08   31.62
  11   3  13  595.59   37.27
  11   3  13  581.79   31.63
  11   3  13  576.35   34.26
  11  -3  13  600.91   35.01
  11  -3  13  577.18   31.21
  11   3  14   49.79    9.69
  11  -3  14   44.46    6.75
  11   3  14   59.33    7.58
  11  -3  14   38.71    7.81
  11  -3  14   48.66    6.66
  11   3  14   49.19    6.70
  11  -3  14   51.41    8.60
  11  -3  15  501.31   29.17
  11   3  15  525.88   29.61
  11   3  15  507.66   29.07
  11   3  15  546.12   34.06
  11  -3  15  541.51   29.24
  11  -3  15  544.10   31.72
  11  -3  15  605.11   33.43
  11   3  16  135.53   13.90
  11  -3  16  119.16   10.56
  11   3  16  137.40   11.23
  11  -3  16  114.01   11.87
  11  -3  16  125.29   12.91
  11  -3  16  153.21   13.82
  11   3  17  556.14   29.82
  11  -3  17  570.08   31.69
  11  -3  17  556.16   29.74
  11  -3  17  535.94   32.32
  11  -3  17  569.11   32.59
  11  -3  18   97.79    9.92
  11   3  18  111.32   11.23
  11  -3  18   85.91    8.46
  11   3  18  110.45    9.35
  11  -3  18  107.53   10.88
  11  -3  18  106.31   10.77
  11  -3  19   42.91    5.96
  11   3  19   27.89    5.93
  11  -3  19   33.47    5.01
  11  -3  19   28.82    5.81
  11   3  19   29.36    4.83
  11  -3  20   55.22    6.04
  11  -3  20   45.49    5.41
  11   3  20   50.55    6.79
  11   3  20   48.08    5.54
  11  -3  20   45.05    6.31
  11  -3  21  281.97   14.89
  11  -3  21  230.50   14.13
  11   3  21  257.24   16.12
  11  -3  21  271.33   15.70
  11  -3  22    3.05    2.20
  11   3  22    7.50    2.85
  11  -3  22    4.56    2.14
  11   3  23  116.41    7.75
  11  -5 -29   13.32    4.69
 -11   5  29   20.46    3.46
  11  -5 -28   34.33    6.96
  11   5 -28   19.46    4.88
 -11  -5  27    2.81    2.82
  11  -5 -27   -1.22    4.98
  11  -5 -27    0.74    3.62
  11   5 -27   -0.74    3.93
 -11  -5  26   21.30    4.49
  11  -5 -26   27.59    8.45
  11  -5 -26   20.00    5.87
 -11   5  26   15.39    4.01
 -11   5  25   49.08    6.31
  11  -5 -25   65.80   12.62
 -11  -5  25   59.20    7.04
 -11   5  24   31.30    5.29
 -11  -5  24   37.63    6.04
  11  -5 -23  272.38   27.62
 -11   5  23  237.77   15.90
 -11  -5  23  230.16   16.06
  11  -5 -22   56.39    8.18
 -11  -5  22   53.36    7.70
 -11   5  22   49.83    6.80
 -11  -5  22   55.27    7.17
  11   5 -22   61.42    8.18
  11   5 -22   54.65    8.60
 -11  -5  21  211.45   16.13
  11  -5 -21  272.58   28.97
  11  -5 -21  225.97   16.72
  11   5 -21  244.52   17.12
 -11   5  21  197.80   14.71
 -11  -5  21  222.07   15.31
  11   5 -21  192.52   17.19
 -11   5  20   25.67    5.06
 -11  -5  20   31.92    5.47
 -11  -5  20   30.54    6.15
  11  -5 -20   35.35    6.30
  11  -5 -20   51.00   15.53
  11   5 -20   39.73    6.55
  11   5 -20   31.98    7.03
 -11  -5  19  477.91   27.69
  11  -5 -19  480.98   27.76
  11  -5 -19  489.33   44.14
  11   5 -19  517.06   28.34
 -11   5  19  468.32   26.14
 -11  -5  19  477.61   26.52
  11   5 -19  443.24   29.80
 -11  -5  18   72.00    8.56
  11  -5 -18   76.79    8.57
  11  -5 -18   97.98   21.61
  11   5 -18   81.02    8.81
 -11   5  18   78.42    7.79
 -11  -5  18   86.24    8.14
  11   5 -18   65.88    9.87
 -11  -5  17  579.05   30.62
  11  -5 -17  516.16   29.95
  11  -5 -17  603.17   50.78
  11   5 -17  578.66   30.53
 -11   5  17  512.30   28.62
 -11  -5  17  559.97   29.17
  11   5 -17  574.66   34.10
  11  -5 -16    1.29    2.65
  11   5 -16    2.58    3.11
 -11   5  16    1.54    2.49
 -11  -5  16    2.13    2.72
  11   5 -16    9.81    5.26
  11  -5 -15  200.54   14.08
  11   5 -15  197.36   13.81
  11   5 -15  214.94   17.54
  11   5 -14    9.42    3.19
  11  -5 -14    5.64   10.55
  11  -5 -14   10.14    3.54
  11   5 -14   12.61    5.48
  11  -5 -13  183.49   12.86
  11  -5 -13  241.06   27.77
  11   5 -13  237.06   17.92
  11   5 -13  210.95   13.54
  11  -5 -12    5.72    2.84
  11  -5 -12   -2.23    8.33
  11   5 -12    5.77    2.63
  11   5 -12    2.96    3.82
  11  -5 -11   57.21    6.01
  11   5 -11   58.59    5.98
  11  -5 -11   58.12   13.04
  11   5 -11   49.57    8.52
  11  -5 -10  113.84   15.71
  11  -5 -10  111.99    8.89
  11  -5 -10  114.07    9.38
  11   5 -10  110.80    8.43
  11   5 -10  104.70   11.29
  11  -5  -9   52.30    5.70
  11   5  -9   46.79    5.31
  11  -5  -9   46.03    5.54
  11  -5  -9   40.50    5.66
  11   5  -9   47.75    5.17
  11  -5  -9   49.43   10.31
  11  -5  -8  201.92   13.34
  11  -5  -8  217.03   13.27
  11   5  -8  206.58   12.89
  11  -5  -8  209.37   13.28
  11  -5  -8  192.60   12.54
  11   5  -8  204.82   12.36
  11  -5  -7  339.71   19.25
  11   5  -7  310.90   18.67
  11  -5  -7  353.55   19.40
  11  -5  -7  354.83   19.10
  11  -5  -7  366.15   19.88
  11   5  -7  347.60   18.37
  11   5  -7  357.33   22.55
  11   5  -6    3.23    2.31
  11  -5  -6    5.35    2.61
  11  -5  -6    2.39    2.62
  11  -5  -6    1.37    2.25
  11  -5  -6    1.00    2.31
  11   5  -6    1.05    4.06
  11   5  -6    1.62    3.84
  11  -5  -5  368.45   19.89
  11  -5  -5  335.73   19.36
  11  -5  -5  336.24   19.31
  11   5  -5  347.88   24.20
  11   5  -5  376.38   22.62
  11   5  -5  334.59   19.25
  11  -5  -5  328.84   19.38
  11  -5  -4  371.32   20.03
  11  -5  -4  339.60   19.80
  11   5  -4  354.99   24.36
  11   5  -4  317.06   21.41
  11  -5  -3  479.45   27.45
  11  -5  -3  513.50   27.58
  11   5  -3  572.00   33.03
  11   5  -3  557.68   30.17
  11  -5  -2   14.13    3.86
  11  -5  -2   10.55    3.73
  11   5  -2   17.42    4.93
  11   5  -2    9.50    4.81
  11  -5  -2   14.18    4.86
  11  -5  -1  175.11   15.30
  11   5  -1  211.11   15.11
  11  -5  -1  207.08   14.74
  11   5  -1  209.96   17.51
  11  -5  -1  184.39   15.66
  11   5   0  202.94   14.77
  11  -5   0  204.50   15.04
  11   5   0  162.39   15.99
  11  -5   0  184.20   15.80
  11  -5   1   28.51    5.47
  11  -5   1   29.78    6.43
  11   5   1   17.62    6.14
  11  -5   1   23.98    6.66
  11   5   1   51.46   10.11
  11   5   1   41.71    6.36
  11  -5   2   20.73    5.12
  11   5   2   24.23    7.32
  11   5   2   22.37    6.57
  11  -5   2   24.42    6.96
  11   5   2   31.67    5.71
  11  -5   2   31.63    6.16
  11   5   3  650.63   40.39
  11   5   3  643.06   38.27
  11   5   3  667.78   34.59
  11  -5   3  660.33   32.55
  11  -5   3  658.72   38.43
  11   5   3  642.48   32.15
  11   5   3  704.65   35.22
  11  -5   3  643.04   38.28
  11  -5   3  678.87   36.51
  11  -5   3  516.33   33.32
  11  -5   4   10.55    3.52
  11  -5   4    7.55    4.08
  11   5   4   11.40    3.24
  11   5   4   13.80    5.68
  11   5   4   18.36    6.97
  11  -5   4   14.00    6.39
  11   5   4    8.89    3.71
  11   5   4   12.33    4.36
  11  -5   4   13.54    6.07
  11  -5   4   12.14    5.36
  11  -5   5  185.75   15.77
  11   5   5  202.99   19.90
  11  -5   5  204.77   14.06
  11   5   5  179.87   17.46
  11   5   5  214.75   13.91
  11  -5   5  194.96   18.29
  11   5   5  225.13   15.14
  11   5   5  210.55   16.25
  11  -5   5  239.19   14.76
  11  -5   5  240.84   20.41
  11  -5   5  237.77   17.91
  11  -5   6  222.24   17.52
  11  -5   6  291.68   16.78
  11   5   6  273.65   22.97
  11   5   6  196.06   19.11
  11  -5   6  258.79   16.28
  11   5   6  234.66   15.46
  11  -5   6  243.39   20.67
  11   5   6  251.05   16.29
  11   5   6  216.05   15.15
  11   5   6  285.79   18.87
  11  -5   6  247.45   21.52
  11  -5   6  277.86   20.03
  11  -5   7  201.32   18.83
  11  -5   7  220.99   17.57
  11   5   7  216.95   19.28
  11   5   7  189.59   19.82
  11  -5   7  248.13   15.58
  11   5   7  203.80   14.28
  11  -5   7  230.42   15.25
  11   5   7  204.02   14.48
  11   5   7  232.46   14.88
  11   5   7  245.92   17.79
  11  -5   7  209.17   19.95
  11  -5   7  209.74   17.57
  11   5   8   31.67    6.49
  11  -5   8   64.22    7.42
  11   5   8   37.71    8.55
  11   5   8   48.54   10.76
  11  -5   8   61.17    7.45
  11  -5   8   44.23    9.40
  11   5   8   32.31    7.07
  11   5   8   32.93    5.72
  11  -5   8   48.51    9.94
  11   5   8   43.14    6.25
  11  -5   8   52.58    8.72
  11   5   9  818.75   51.72
  11  -5   9  954.80   44.65
  11   5   9  870.65   49.45
  11   5   9  846.15   43.35
  11  -5   9  969.45   44.68
  11  -5   9  825.95   48.34
  11   5   9  856.30   43.34
  11   5   9  856.05   46.61
  11  -5   9  832.65   50.06
  11  -5   9  824.84   47.21
  11  -5  10  285.48   17.93
  11   5  10  232.38   20.83
  11   5  10  255.38   16.98
  11  -5  10  280.77   17.65
  11  -5  10  268.71   21.16
  11   5  10  244.31   16.67
  11   5  10  284.41   20.05
  11   5  10  227.71   22.68
  11  -5  10  250.92   21.92
  11  -5  10  249.72   19.82
  11   5  11  308.61   27.18
  11   5  11  330.65   25.33
  11  -5  11  348.15   21.61
  11  -5  11  351.75   25.15
  11  -5  11  352.28   24.56
  11  -5  11  353.53   21.55
  11   5  11  378.41   21.64
  11   5  11  363.48   24.22
  11  -5  11  404.92   27.66
  11  -5  12   47.63    6.41
  11   5  12   48.72   10.88
  11  -5  12   27.82    7.09
  11   5  12   56.20    8.75
  11  -5  12   51.17    9.81
  11  -5  12   38.73    5.95
  11   5  12   49.50    6.48
  11  -5  12   36.07    7.47
  11  -5  13   77.48    8.13
  11   5  13   70.72    7.88
  11   5  13   57.28   11.82
  11  -5  13   81.62    8.47
  11  -5  13   76.24   10.08
  11   5  13   74.82   10.21
  11  -5  13   83.66   11.27
  11  -5  13   99.90   11.24
  11   5  14    2.83    6.10
  11  -5  14    3.68    4.53
  11   5  14    2.92    4.80
  11  -5  14    2.19    4.61
  11  -5  14    0.60    3.30
  11   5  14   -0.58    3.29
  11  -5  14   -0.98    4.11
  11   5  15  279.69   22.72
  11  -5  15  255.11   18.74
  11   5  15  289.22   17.11
  11   5  15  269.52   19.58
  11  -5  15  265.32   16.80
  11  -5  15  281.91   20.56
  11  -5  15  262.51   19.60
  11   5  16   48.15    9.10
  11  -5  16   31.56    6.00
  11   5  16   28.74    6.28
  11  -5  16   44.71    7.61
  11  -5  16   37.34    5.26
  11  -5  16   23.67    5.97
  11   5  16   32.38    4.83
  11   5  17   14.87    5.66
  11  -5  17   27.79    5.13
  11   5  17   15.91    5.00
  11  -5  17   21.06    3.81
  11   5  18    6.31    4.01
  11  -5  18    6.58    3.71
  11   5  19  170.00   12.90
  11  -5  19  193.05   12.85
  11   5  20   30.11    4.72
  11   5  21  519.97   26.09
 -11  -7  29   28.50    3.79
  11  -7 -28  211.39   14.71
 -11   7  28  194.68   13.21
  11  -7 -27  102.06   11.00
  11  -7 -26  185.12   17.08
  11   7 -25   11.50    5.25
  11  -7 -25   -1.40    6.60
  11   7 -24   -2.64    6.11
  11  -7 -24    1.67    7.75
  11  -7 -24    0.49    2.46
  11  -7 -23    1.72    2.83
  11   7 -23   -1.59    6.50
  11  -7 -23   -1.96    8.25
  11  -7 -22  136.01   11.27
  11   7 -22  152.15   19.16
  11  -7 -22  122.11   19.52
  11  -7 -21   34.41    5.88
  11  -7 -21   35.99   13.88
  11   7 -21   27.48   10.69
  11  -7 -20   73.53    8.34
  11   7 -20   51.54   14.23
  11  -7 -20   66.09   17.99
 -11  -7  19    6.09    3.77
  11  -7 -19   12.26    4.26
  11   7 -19   13.89    4.02
  11   7 -19    9.63    4.97
 -11  -7  18  743.37   38.48
  11  -7 -18  752.03   38.20
  11   7 -18  719.77   37.82
  11  -7 -18  607.51   55.59
  11   7 -18  687.92   41.13
 -11  -7  17  145.28   12.57
  11  -7 -17  160.09   12.62
  11  -7 -17  147.07   26.16
  11   7 -17  136.70   11.90
  11   7 -17  185.40   16.34
 -11  -7  16  220.25   15.81
  11  -7 -16  211.69   15.37
  11   7 -16  225.73   15.38
  11   7 -16  206.73   18.51
  11  -7 -16  237.26   16.71
 -11  -7  15   11.16    3.81
  11  -7 -15    3.98    3.62
  11  -7 -15    3.07    3.40
  11   7 -15    2.45    3.13
  11   7 -15    3.55    4.98
 -11  -7  14   70.99    8.15
  11  -7 -14   68.04   17.65
  11  -7 -14   80.33    8.38
  11   7 -14   74.05   14.90
  11  -7 -14   73.26    8.44
  11   7 -14   70.29    7.53
  11   7 -14   89.08   11.67
 -11  -7  13   13.44    4.05
  11  -7 -13   27.39    5.25
  11  -7 -13   13.31   11.23
  11   7 -13   20.07    9.33
  11  -7 -13   18.67    4.83
  11   7 -13   24.98    4.50
  11   7 -13   28.41    7.37
 -11  -7  12  349.56   20.69
  11  -7 -12  334.18   20.69
  11  -7 -12  332.47   32.65
  11   7 -12  334.25   19.68
  11  -7 -12  379.54   21.93
  11   7 -12  369.96   25.68
  11   7 -12  385.78   30.94
 -11  -7  11  105.26    9.33
  11  -7 -11   99.27    9.40
  11   7 -11  113.85   16.12
  11  -7 -11  111.86   10.06
  11   7 -11  108.14    8.80
  11  -7 -11  128.41   18.19
  11   7 -11  127.71   13.54
  11  -7 -10  730.19   38.61
  11  -7 -10  776.77   37.95
  11   7 -10  791.20   48.23
  11  -7 -10  781.77   39.45
  11  -7 -10  762.79   49.62
  11   7 -10  784.95   37.22
  11   7 -10  692.09   42.66
  11   7  -9  525.19   35.86
  11  -7  -9  508.34   27.04
  11  -7  -9  486.34   27.70
  11  -7  -9  512.74   28.29
  11  -7  -9  492.65   36.02
  11   7  -9  510.42   25.97
  11   7  -9  537.81   32.54
  11  -7  -8 1230.62   59.47
  11   7  -8 1260.88   68.02
  11  -7  -8 1195.23   59.30
  11  -7  -8 1302.24   68.48
  11  -7  -8 1261.24   58.58
  11  -7  -7  152.61   12.13
  11   7  -7  179.93   18.33
  11  -7  -7  154.11   11.63
  11  -7  -7  168.77   12.46
  11  -7  -7  136.57   15.87
  11  -7  -6   57.77    7.12
  11  -7  -6   48.53    6.62
  11   7  -6   62.70   10.89
  11  -7  -6   59.43    7.07
  11  -7  -6   60.84   10.37
  11  -7  -5    0.63    2.78
  11  -7  -5    5.87    5.78
  11   7  -5    2.14    4.00
  11  -7  -4   42.65    6.37
  11  -7  -4   46.98    8.70
  11   7  -4   41.41    8.21
  11  -7  -3    2.85    3.50
  11  -7  -3    1.02    4.06
  11   7  -3   -2.10    4.30
  11  -7  -2  357.87   22.69
  11  -7  -2  383.61   23.07
  11   7  -2  410.37   29.39
  11  -7  -2  328.38   22.01
  11  -7  -2  369.93   24.42
  11   7  -2  357.86   24.69
  11  -7  -1    4.73    3.74
  11  -7  -1    9.29    4.37
  11   7  -1    3.43    6.20
  11  -7  -1   12.44    4.95
  11   7  -1    6.16    6.49
  11  -7  -1    8.85    4.19
  11   7  -1    5.16    4.12
  11  -7   0   57.33    7.82
  11   7   0   66.55   12.30
  11  -7   0   59.72    8.48
  11   7   0   49.99   10.39
  11   7   0   50.22    8.38
  11   7   1  495.73   36.29
  11   7   1  516.70   35.48
  11  -7   1  454.96   29.84
  11   7   1  565.56   31.59
  11  -7   1  472.77   28.53
  11  -7   2  762.02   43.57
  11   7   2  781.09   47.90
  11   7   2  869.49   51.49
  11   7   2  788.55   42.82
  11  -7   2  724.95   40.32
  11   7   3  267.74   25.73
  11   7   3  282.64   24.45
  11   7   3  257.83   19.56
  11   7   4  131.40   17.00
  11   7   4  175.56   19.59
  11   7   4  168.88   14.68
  11   7   5  131.05   16.18
  11   7   5  116.12   12.17
  11   7   6   22.94    5.70
  11   7   6   29.13    5.85
  11  -7   6   36.74    9.47
  11   7   6   30.38    8.80
  11  -7   6   23.21    6.92
  11   7   7   31.77    6.25
  11   7   7   41.97    6.92
  11  -7   7   44.21   11.49
  11   7   7   42.98   10.09
  11  -7   7   39.22    8.18
  11   7   8  696.40   44.08
  11   7   8  675.68   37.73
  11  -7   8  687.24   44.80
  11  -7   8  709.30   40.58
  11   7   9   12.25    7.13
  11   7   9   18.20    5.66
  11  -7   9   21.20    8.94
  11  -7   9   20.78    6.38
  11   7  10  139.49   16.18
  11   7  10  117.54   16.98
  11   7  10  120.09   12.09
  11  -7  10  136.28   16.59
  11  -7  10  145.73   14.00
  11   7  11    3.50    6.97
  11   7  11    1.37    5.30
  11   7  11    7.65    3.67
  11  -7  11   -5.60    7.02
  11  -7  11    7.05    5.15
  11   7  12   31.14    8.85
  11   7  12   14.93    6.31
  11   7  12   20.53    5.57
  11  -7  12   23.75    7.40
  11  -7  12   24.72    6.56
  11   7  13   73.68   12.77
  11   7  13   83.63    9.44
  11  -7  13   62.25    8.78
  11   7  14  667.55   40.05
  11   7  14  607.97   33.76
  11   7  15  268.59   21.60
  11   7  15  266.71   17.59
  11   7  16  708.50   39.88
  11   7  16  702.86   36.02
  11   7  17   36.12    6.92
  11   7  17   32.11    5.05
  11   7  18  118.58    8.94
  11  -7  19   11.74    2.96
  11   7  19    9.56    2.56
  11  -7  20    2.23    1.45
  11  -9 -25   20.04    3.78
  11  -9 -25   20.30    5.45
  11  -9 -24  171.07   15.79
 -11  -9  24  140.88   10.10
  11  -9 -23    2.78    6.15
 -11  -9  23    6.74    3.05
  11   9 -22  111.25   12.72
  11  -9 -22  112.59    9.70
  11  -9 -21   41.35    6.21
  11   9 -21   42.44    9.42
  11  -9 -20   34.61    6.12
  11   9 -20   42.57   10.47
  11  -9 -20   24.78   12.97
  11  -9 -19  206.62   15.43
  11   9 -19  206.10   22.96
  11  -9 -19  207.93   27.65
  11  -9 -18   69.70    8.37
  11   9 -18   64.79   15.37
  11  -9 -18   66.40   20.45
  11  -9 -17   -2.39    3.84
  11   9 -17    2.46    9.49
  11  -9 -17    6.74   15.60
  11  -9 -16   48.60    7.41
  11   9 -16   41.68   14.36
  11  -9 -15  245.49   17.31
  11   9 -15  220.53   28.41
  11  -9 -14   39.25    6.72
  11   9 -14   52.70   14.52
  11  -9 -14   52.19    7.58
  11  -9 -14   54.20   16.97
  11   9 -14   45.01    8.55
  11  -9 -13   21.22    5.38
  11  -9 -13   23.42    5.78
  11   9 -13   30.51   11.81
  11  -9 -13   20.72   13.74
  11   9 -13   30.60    7.45
  11  -9 -12   23.36    5.60
  11   9 -12   21.78   11.00
  11  -9 -12   23.41    5.42
  11  -9 -12   21.61   12.54
  11   9 -12   17.56    6.12
  11  -9 -11  142.45   12.23
  11  -9 -11  136.93   12.40
  11   9 -11  133.49   20.34
  11  -9 -11  125.52   20.98
  11   9 -11  136.82   14.87
  11  -9 -10    0.78    3.86
  11  -9 -10    7.16    3.50
  11   9 -10    6.57    7.91
  11  -9 -10    7.16    4.00
  11  -9 -10   11.20    9.67
  11   9 -10    9.07    5.74
  11   9  -9    2.10    7.30
  11  -9  -9    7.29    3.84
  11  -9  -9    1.59    3.42
  11  -9  -9   -4.08    8.13
  11   9  -9   -1.30    5.03
  11  -9  -8    9.47    4.04
  11   9  -8   12.13    7.81
  11  -9  -8   14.99    9.23
  11   9  -8    3.93    5.22
  11   9  -7   15.73    8.50
  11  -9  -7   14.59    4.76
  11  -9  -7   15.55    8.99
  11   9  -7    3.93    5.08
  11  -9  -6  195.23   15.90
  11   9  -6  210.28   22.85
  11  -9  -6  231.34   15.73
  11  -9  -6  190.21   20.11
  11  -9  -5  123.98   11.82
  11   9  -5   95.80   16.41
  11  -9  -5  120.81   11.04
  11   9  -5  111.15   16.86
  11  -9  -5  115.54   15.05
  11  -9  -4  912.09   46.63
  11   9  -4 1007.59   58.16
  11  -9  -4  816.90   45.12
  11   9  -4  965.67   56.90
  11  -9  -4  875.89   50.83
  11   9  -4  857.72   49.76
  11  -9  -3    3.49    3.68
  11  -9  -3    8.84    5.05
  11  -9  -3    3.35    4.13
  11   9  -3   -2.00    6.96
  11   9  -3    5.72    8.24
  11  -9  -3    3.81    4.90
  11   9  -3    1.28    4.93
  11  -9  -2  770.99   41.63
  11  -9  -2  762.93   42.19
  11   9  -2  762.31   50.37
  11  -9  -2  794.06   42.29
  11  -9  -2  759.23   44.36
  11   9  -2  777.91   45.22
  11   9  -2  874.30   53.28
  11  -9  -1   63.62    8.30
  11  -9  -1   46.39    8.48
  11  -9  -1   48.06    8.41
  11   9  -1   51.99    9.29
  11   9  -1   48.63   12.41
  11   9   0  306.52   28.61
  11  -9   0  278.13   20.68
  11  -9   0  239.34   19.25
  11   9   0  298.67   22.44
  11  -9   0  263.02   18.58
  11   9   1  311.13   28.29
  11  -9   1  265.03   21.25
  11  -9   1  263.57   19.39
  11   9   1  287.27   22.12
  11   9   2    6.22    8.72
  11   9   2    9.48    7.77
  11  -9   2    4.88    5.66
  11   9   2    4.60    4.16
  11   9   3   -2.08    7.77
  11   9   3   -1.88    6.77
  11   9   3    1.11    4.29
  11   9   4    2.07    8.01
  11   9   4    3.69    7.13
  11   9   4    6.36    4.22
  11   9   5   67.75   14.30
  11   9   5   66.76   13.11
  11   9   6  439.75   34.89
  11   9   6  411.79   32.57
  11   9   7   31.34   11.29
  11   9   7   38.60    9.97
  11   9   8 1620.86   87.58
  11   9   8 1615.73   84.75
  11   9   9   22.91   10.27
  11   9   9   29.45    8.60
  11   9  10 1647.57   85.51
  11   9  10 1593.91   82.22
  11   9  11   26.45    9.48
  11   9  11   27.05    7.61
  11  -9  14    3.99    2.73
  11  -9  15   62.74    6.02
  11  -9  16   54.06    5.01
  11   9  16   63.96    7.28
  11 -11 -21    4.46    3.49
  11 -11 -21    3.71    4.48
  11 -11 -20   20.79    7.42
  11 -11 -19   50.50   11.45
  11  11 -18   28.21    6.72
  11 -11 -18   44.35   12.06
  11 -11 -18   39.97    6.04
  11 -11 -17   12.08    4.13
  11  11 -17   11.58    6.82
  11 -11 -16   76.71    8.76
  11  11 -16   92.42   14.06
  11 -11 -15  102.29   10.03
  11  11 -15   96.36   16.03
  11 -11 -14   46.65    7.03
  11  11 -14   50.22   13.48
  11 -11 -14   45.75   14.83
  11  11 -13    2.36    9.10
  11 -11 -13    5.41   10.12
  11  11 -12   41.53   12.20
  11  11 -12   61.03   15.19
  11 -11 -12   26.65   13.73
  11  11 -11  225.51   25.43
  11  11 -11  309.52   31.12
  11 -11 -11  262.07   29.60
  11 -11 -10  196.51   24.53
  11  11 -10  211.73   24.40
  11  11  -9  192.70   23.98
  11 -11  -9  190.89   14.95
  11  11  -9  200.71   24.21
  11 -11  -9  174.09   14.80
  11 -11  -9  211.91   24.58
  11  11  -8   72.53   15.01
  11 -11  -8   65.89    8.52
  11 -11  -8   72.06    9.03
  11  11  -8  100.75   17.42
  11 -11  -8   74.63   16.01
  11 -11  -7   88.18   10.00
  11 -11  -7   72.55    9.26
  11 -11  -7   83.72    9.71
  11  11  -7   56.16   13.90
  11  11  -7   75.32   15.75
  11 -11  -7   76.02   15.45
  11  11  -6   27.47   10.90
  11 -11  -6   47.87    7.42
  11 -11  -6   42.27    7.18
  11 -11  -6   23.77    6.11
  11  11  -6   53.83   13.04
  11 -11  -6   38.18   10.70
  11 -11  -5   11.28    4.22
  11  11  -5   14.44    9.35
  11 -11  -5   15.86    5.34
  11 -11  -5   12.12    4.97
  11  11  -5    5.99    7.48
  11 -11  -5   21.09    9.15
  11 -11  -4    4.65    3.59
  11  11  -4   -2.01    7.00
  11 -11  -4   -2.67    4.30
  11  11  -4   -1.94    7.72
  11 -11  -4   -3.21    6.74
  11 -11  -3    5.09    3.51
  11 -11  -3    3.70    3.99
  11  11  -3    9.83    8.27
  11  11  -3    5.65    8.13
  11 -11  -3   -1.44    6.53
  11  11  -2    7.69    8.30
  11 -11  -2    0.96    4.36
  11 -11  -2   -2.56    5.25
  11  11  -2    1.83    6.61
  11  11  -1  221.59   22.85
  11  11  -1  209.16   21.55
  11 -11  -1  172.21   16.04
  11 -11  -1  188.91   17.32
  11  11   0   62.34   13.11
  11  11   0   80.02   13.45
  11 -11   0   48.72    8.19
  11  11   1  280.00   23.00
  11  11   1  359.36   24.73
  11  11   2  401.55   31.67
  11  11   3 1385.23   75.43
  11  11   4  401.16   30.66
  11  11   5  381.41   28.71
  11  11   5  359.02   27.65
  11  11   6   54.47   10.88
  11  11   6   40.93    9.40
  11  11   7   89.42   12.70
  11  11   7   86.48   12.01
  11  11   8    4.59    5.07
  11  11   8   -1.07    4.94
  11  11   9   53.32    9.00
  11  11   9   49.59    8.31
  11  11  10   28.28    6.47
  11  11  11    2.12    3.54
  11  11  12   53.23    6.44
  11 -13 -14   20.44    7.32
  11 -13 -13  228.64   20.92
  11 -13 -12    4.74    6.29
  11  13 -11   95.08   10.51
  11 -13 -11  133.43   17.35
  11  13 -10   49.48    9.42
  11 -13 -10   54.35   13.22
  11  13  -9    6.67    5.63
  11 -13  -9   13.44    8.89
  11  13  -8    2.84    6.57
  11 -13  -8    3.77    9.28
  11  13  -7   77.95   12.55
  11 -13  -7   54.90   13.21
  11  13  -6    8.57    6.76
  11 -13  -6    3.18    8.14
  11  13  -5  573.92   35.64
  11 -13  -5  464.51   33.98
  11  13  -4   81.65   11.93
 -11 -13   4   67.27    7.18
  11  13  -3  535.66   25.82
 -11 -13   3  405.93   15.74
  11  13  -2    4.69    5.55
  11  13  -1  374.49   25.82
  11  13   0    8.11    4.81
  11  13   1   53.14    8.26
  11  13   2    7.60    4.17
  11  13   3   77.31    8.85
  11  13   4    7.15    3.78
  12   0 -33   -2.83    2.27
  12   0 -32  542.79   28.92
 -12   0  31    2.74    2.29
 -12   0  30  132.82   10.51
 -12   0  29   -3.14    3.59
 -12   0  28  132.13   11.50
 -12   0  27    1.51    4.00
 -12   0  26  435.54   26.18
 -12   0  25    0.82    4.09
 -12   0  25   -1.42    3.21
  12   0 -25   -1.82    7.24
  12   0 -25   -0.81    3.12
 -12   0  24  493.14   28.14
  12   0 -24  519.37   37.56
  12   0 -24  473.94   28.86
 -12   0  24  506.54   29.33
 -12   0  23    1.44    3.03
  12   0 -23   -5.72    7.59
  12   0 -23   -2.45    3.70
 -12   0  23    2.39    4.22
 -12   0  22  865.79   43.90
  12   0 -22  832.60   53.63
  12   0 -22  860.09   44.71
 -12   0  22  869.49   44.67
 -12   0  21    2.03    3.07
  12   0 -21   -1.84    6.88
  12   0 -21    4.51    3.63
 -12   0  21   -2.21    4.32
  12   0 -20   32.04    9.95
  12   0 -20   60.31    7.35
  12   0 -19    1.71    5.96
  12   0 -19    0.65    2.72
  12   0 -19   -2.22    4.67
  12   0 -18 1540.46   71.85
  12   0 -18 1648.89   74.38
  12   0 -18 1703.77   79.97
  12   0 -17    2.19    2.36
  12   0 -17    1.48    1.85
  12   0 -17   -1.07    4.27
  12   0 -16  878.59   45.03
  12   0 -16  966.12   50.94
  12   0 -16  891.83   54.37
  12   0 -16  999.86   43.95
  12   0 -15    0.33    1.71
  12   0 -15    1.45    5.95
  12   0 -15    1.41    2.32
  12   0 -14 1277.42   56.79
  12   0 -14 1232.01   58.14
  12   0 -13   -0.30    1.81
  12   0 -13    1.69    2.16
  12   0 -12   91.22    6.77
  12   0 -12  103.90    7.89
  12   0 -11    0.29    1.66
  12   0 -11    0.39    2.16
  12   0 -11    0.86    4.49
  12   0 -10  768.42   35.77
  12   0 -10  751.79   36.68
  12   0 -10  807.19   41.15
  12   0  -9    1.50    2.17
  12   0  -9    5.86    4.00
  12   0  -8   15.21    4.65
  12   0  -7    1.18    3.27
  12   0  -6   77.72    7.03
  12   0  -6   90.37    8.11
  12   0  -5    6.88    2.74
  12   0  -5    2.71    2.93
  12   0  -4 5411.02  236.40
  12   0  -4 5495.16  235.40
  12   0  -3    2.52    2.63
  12   0  -3    9.41    2.78
  12   0  -2  513.28   25.29
  12   0  -2  488.88   23.61
  12   0  -2  467.65   25.94
  12   0  -1    0.42    2.46
  12   0  -1    0.40    1.25
  12   0   0   26.87    4.27
  12   0   0   25.23    2.31
  12   0   0   30.71    4.40
  12   0   1    0.46    2.47
  12   0   1    0.46    2.63
  12   0   2 1193.47   55.60
  12   0   2 1185.82   55.56
  12   0   3    4.62    2.68
  12   0   3    7.13    2.52
  12   0   4  379.02   21.86
  12   0   4  392.18   24.44
  12   0   4  397.98   22.09
  12   0   5    4.91    4.26
  12   0   5    0.83    3.77
  12   0   5    1.18    2.78
  12   0   5   -0.88    3.79
  12   0   5   -1.73    3.10
  12   0   6  493.80   25.66
  12   0   6  383.71   25.42
  12   0   6  402.13   26.41
  12   0   6  489.87   25.52
  12   0   7   16.71    3.71
  12   0   7   10.08    4.79
  12   0   7   16.03    4.41
  12   0   7   12.95    3.94
  12   0   7    8.10    4.39
  12   0   8 1617.26   69.12
  12   0   8 1633.85   68.97
  12   0   8 1566.56   70.39
  12   0   9    3.84    4.83
  12   0   9   24.22    5.44
  12   0   9   18.71    6.24
  12   0   9   16.95    5.37
  12   0   9   12.06    5.15
  12   0  10 3880.56  153.35
  12   0  10 3929.77  153.07
  12   0  10 3758.26  154.46
  12   0  10 3959.17  156.61
  12   0  11   10.10    4.34
  12   0  11    7.05    5.43
  12   0  11    5.22    4.90
  12   0  11    8.86    4.79
  12   0  12  176.06   15.04
  12   0  12  195.64   15.33
  12   0  12  174.44   16.24
  12   0  13    0.79    3.24
  12   0  13    2.02    4.13
  12   0  13   -3.03    3.94
  12   0  14   11.81    4.17
  12   0  14    3.00    4.64
  12   0  14    6.02    3.50
  12   0  15    1.54    3.32
  12   0  15    0.98    4.32
  12   0  15    0.74    3.62
  12   0  16   28.05    6.67
  12   0  16   25.49    5.50
  12   0  17   -2.62    4.22
  12   0  17   -1.34    3.09
  12   0  18  298.13   18.35
  12   0  18  293.63   18.21
  12   0  18  280.11   19.39
  12   0  19    0.95    1.21
  12   0  19    0.70    3.37
  12   0  19    4.39    3.31
  12   0  20 1202.60   54.04
  12   0  20 1086.66   54.66
  12   0  21    5.19    2.93
  12   0  21    3.00    2.83
  12   0  21   11.46    3.13
  12   0  22  448.87   22.84
  12   0  22  460.64   23.31
  12   2 -32   74.78    7.33
  12  -2 -32   78.16    7.44
  12   2 -31   56.99    7.31
  12  -2 -31   61.24    7.67
 -12   2  30   61.10    6.50
 -12  -2  30   66.15    6.69
 -12   2  29  170.45   12.46
 -12  -2  29  171.67   12.42
 -12   2  28   17.23    4.09
 -12  -2  28   14.87    4.27
  12  -2 -28    6.48    5.76
  12  -2 -27   67.33   12.62
 -12   2  27   80.94    8.87
 -12  -2  27   99.49    9.41
 -12   2  26   32.18    6.31
 -12  -2  26   39.67    6.46
  12  -2 -26   24.47    9.50
  12  -2 -25  540.45   39.45
 -12   2  25  518.16   30.08
 -12  -2  25  525.43   29.93
 -12   2  24   14.40    5.54
 -12  -2  24   10.94    5.20
  12   2 -24   17.84    5.34
 -12  -2  24   10.13    4.41
  12  -2 -24    4.17    7.54
 -12  -2  23  480.61   27.48
  12  -2 -23  528.89   39.63
  12  -2 -23  465.24   26.31
  12   2 -23  442.55   27.45
 -12   2  23  464.54   27.42
 -12  -2  23  450.58   27.18
 -12  -2  22  511.26   30.17
  12  -2 -22  545.52   29.69
  12  -2 -22  614.60   43.83
  12   2 -22  519.63   30.79
  12  -2 -22  582.22   31.27
 -12   2  22  563.45   30.80
 -12  -2  22  523.81   30.27
  12   2 -22  523.88   32.56
 -12  -2  21  441.95   26.91
 -12   2  21  454.63   25.71
  12  -2 -21  483.76   26.67
  12  -2 -21  497.44   39.69
  12   2 -21  479.19   27.76
  12  -2 -21  509.97   28.15
 -12   2  21  500.37   27.64
 -12  -2  21  482.65   27.35
  12   2 -21  429.00   29.05
 -12   2  20   23.36    4.56
  12  -2 -20   26.36    4.89
  12  -2 -20   39.94   12.72
  12   2 -20   25.71    5.32
  12  -2 -20   21.10    4.99
 -12   2  20   27.37    5.73
 -12  -2  20   23.27    5.63
  12   2 -20   39.01    7.56
  12   2 -19   27.39    9.19
  12  -2 -19   41.13    5.89
  12  -2 -19   32.58   11.40
  12   2 -19   37.60    5.94
  12  -2 -19   32.61    5.79
  12   2 -19   57.98    8.84
  12  -2 -18    7.86    3.09
  12   2 -18   10.11    3.58
  12  -2 -18   11.95    3.82
  12   2 -18   12.60    5.08
  12  -2 -17    2.91    2.75
  12  -2 -17    0.53    2.50
  12   2 -17    1.75    2.76
  12   2 -17    3.10    4.35
  12  -2 -16   19.43    4.15
  12   2 -16   10.96    7.27
  12  -2 -16   13.38    3.50
  12  -2 -16   11.95    8.83
  12   2 -16   15.64    3.73
  12   2 -16    8.05    5.35
  12  -2 -15   59.98   13.37
  12   2 -15   51.61   11.29
  12  -2 -15   67.53    6.50
  12   2 -15   65.30    6.60
  12  -2 -15   77.16    7.01
  12   2 -15   59.12    8.87
  12  -2 -14  198.19   12.38
  12  -2 -14  167.37   20.87
  12   2 -14  203.70   12.76
  12  -2 -14  197.13   12.67
  12   2 -14  218.72   16.57
  12  -2 -13   44.39    5.04
  12  -2 -12  882.38   41.71
  12  -2 -11 1053.68   48.49
  12   2 -11 1023.93   52.35
  12  -2 -10 1249.91   57.98
  12   2 -10 1328.15   62.20
  12  -2  -9  425.73   21.54
  12   2  -9  412.49   21.64
  12   2  -9  400.38   24.28
  12  -2  -8 1398.61   63.66
  12   2  -8 1418.96   63.75
  12   2  -8 1408.14   66.84
  12  -2  -7   39.54    4.63
  12   2  -7   34.41    5.79
  12   2  -6    6.06    2.63
  12  -2  -6    1.05    2.00
  12  -2  -6    3.62    2.23
  12   2  -6   -0.59    3.24
  12  -2  -5  345.04   19.44
  12   2  -5  367.23   19.90
  12  -2  -5  318.98   18.49
  12   2  -5  392.05   20.98
  12  -2  -4    3.41    2.63
  12   2  -4    9.48    2.90
  12   2  -4    3.77    3.29
  12  -2  -3  430.32   24.43
  12   2  -3  430.61   24.58
  12   2  -2   84.22    7.50
  12   2  -2   75.21    7.47
  12  -2  -2   87.00    7.80
  12   2  -1   29.48    4.42
  12  -2  -1   35.80    4.64
  12   2  -1   32.80    4.69
  12  -2   0 1059.80   51.22
  12   2   0 1125.22   51.49
  12   2   0 1111.63   51.11
  12  -2   1  631.19   30.31
  12   2   1  571.83   29.97
  12  -2   1  597.28   30.09
  12   2   1  579.30   29.91
  12   2   1  580.92   28.91
  12  -2   2 1642.07   76.58
  12   2   2 1655.94   76.61
  12  -2   2 1643.16   76.64
  12   2   2 1698.11   76.72
  12   2   2 1752.49   75.07
  12   2   3 1747.07   77.91
  12  -2   3 1778.76   78.01
  12  -2   3 1701.01   77.83
  12   2   3 1586.90   77.42
  12  -2   3 1735.45   81.40
  12   2   4 1271.71   63.13
  12  -2   4 1139.87   61.26
  12  -2   4 1274.60   59.59
  12   2   4 1293.46   59.61
  12  -2   4 1226.11   59.43
  12   2   4 1292.25   59.60
  12  -2   4 1296.19   63.28
  12   2   4 1353.21   62.42
  12   2   5   85.29    9.77
  12   2   5   80.87    8.10
  12  -2   5   85.91    9.48
  12  -2   5   80.50    9.91
  12  -2   5  102.69    8.78
  12   2   5   81.83    8.06
  12   2   5   74.38   10.05
  12  -2   5  100.01    8.83
  12   2   5   82.83    8.29
  12  -2   5   97.16   10.98
  12   2   6  123.04   11.25
  12  -2   6   95.52   10.40
  12   2   6  119.39   12.52
  12  -2   6   87.20   10.60
  12  -2   6  107.75    9.83
  12   2   6  131.82   10.41
  12   2   6   91.32   11.76
  12  -2   6  124.97   10.25
  12   2   6  113.95    9.94
  12  -2   6  106.30   11.94
  12   2   6  108.47   11.29
  12  -2   7    1.55    3.58
  12   2   7    1.03    5.34
  12  -2   7   -3.72    4.84
  12   2   7    3.42    4.67
  12  -2   7   -2.04    4.17
  12  -2   7    1.97    2.69
  12   2   7    1.29    2.34
  12   2   7    4.30    4.39
  12  -2   7    5.10    3.37
  12   2   7    2.53    3.05
  12  -2   7   -0.95    3.80
  12   2   8  304.92   18.26
  12  -2   8  259.66   17.62
  12  -2   8  293.12   18.13
  12   2   8  250.47   19.92
  12  -2   8  225.32   18.62
  12   2   8  310.75   18.54
  12   2   8  244.84   21.01
  12  -2   8  270.22   17.65
  12  -2   8  281.19   20.74
  12   2   8  261.89   19.27
  12  -2   8  288.88   20.58
  12  -2   9   71.17    7.83
  12  -2   9   99.31    9.48
  12   2   9  105.43    9.63
  12   2   9   75.93   10.40
  12  -2   9   56.53    8.97
  12   2   9  105.66   12.87
  12  -2   9   91.58    9.05
  12   2   9   91.11    9.06
  12  -2   9  110.54   12.04
  12   2   9  107.57   10.97
  12  -2   9   86.97   10.98
  12   2  10   23.53    6.69
  12   2  10   50.15    8.72
  12  -2  10   48.44    7.91
  12   2  10   23.57    5.31
  12  -2  10   22.91    5.26
  12  -2  10   17.93    6.74
  12   2  10   25.93    6.47
  12  -2  10   25.55    5.46
  12   2  10   23.51    5.32
  12  -2  10   25.71    6.65
  12  -2  11  185.64   14.26
  12   2  11  160.67   13.78
  12   2  11  177.15   17.48
  12  -2  11  158.45   13.26
  12   2  11  155.83   13.39
  12  -2  11  174.00   15.97
  12  -2  11  180.44   16.16
  12   2  12    3.75    3.49
  12   2  12    5.88    5.80
  12  -2  12    7.27    3.53
  12   2  12    5.35    3.63
  12  -2  12    2.08    4.50
  12  -2  12   11.91    3.72
  12   2  12   14.71    4.67
  12  -2  12    5.18    4.70
  12  -2  13  849.68   45.47
  12   2  13  890.46   46.25
  12   2  13  957.25   50.04
  12  -2  13  886.43   45.65
  12   2  13  916.04   46.22
  12  -2  13  963.25   49.43
  12  -2  13  937.37   49.05
  12  -2  14  625.61   35.49
  12   2  14  717.35   36.67
  12   2  14  675.21   38.75
  12  -2  14  641.34   35.31
  12   2  14  703.22   36.16
  12  -2  14  707.41   38.76
  12  -2  14  678.27   38.41
  12  -2  15  552.49   29.90
  12   2  15  540.35   30.05
  12  -2  15  585.00   32.82
  12   2  15  494.85   31.59
  12  -2  15  560.36   32.46
  12   2  16  144.23   13.39
  12  -2  16  137.92   11.51
  12   2  16  156.01   12.14
  12  -2  16  145.77   13.39
  12  -2  17  440.43   24.24
  12   2  17  406.06   23.90
  12  -2  17  418.28   25.71
  12   2  17  429.50   26.38
  12   2  18   81.87    8.11
  12  -2  18   79.82    8.04
  12  -2  18   80.41    8.96
  12   2  18   98.03    9.96
  12  -2  18   80.19    9.42
  12  -2  19   12.37    4.12
  12   2  19   11.85    4.39
  12  -2  19    7.57    3.91
  12  -2  19   11.46    3.60
  12   2  19   16.33    3.80
  12  -2  20   13.32    3.73
  12  -2  20   19.95    3.94
  12   2  20   18.88    4.57
  12  -2  20   14.24    3.87
  12  -2  20   21.81    4.00
  12   2  20   13.94    3.41
  12  -2  21    3.11    1.92
  12  -2  21    5.47    2.37
  12   2  21    1.90    2.43
  12  -2  21    3.54    2.60
  12   2  22   61.98    5.59
  12  -2  22   48.60    4.80
 -12  -4  31    2.32    2.18
  12  -4 -30   -2.97    3.17
  12   4 -30    1.09    2.88
  12  -4 -29   70.86    8.26
  12   4 -29   72.23    8.55
  12  -4 -29   82.68    9.92
 -12   4  29   75.72    7.00
 -12  -4  29   65.15    6.67
 -12  -4  28    1.55    2.86
 -12   4  28    1.55    2.73
  12  -4 -28    3.42    5.50
  12  -4 -28    8.01    4.17
 -12   4  27    8.16    3.57
 -12  -4  27    3.51    3.49
  12  -4 -27   15.10    6.89
 -12   4  26   41.47    6.11
 -12  -4  26   32.62    5.67
 -12   4  25   59.89    7.75
  12  -4 -25   84.51   14.90
 -12  -4  25   72.96    8.20
 -12   4  24   23.37    5.10
 -12  -4  24   15.58    4.51
  12  -4 -24   32.88   10.71
 -12   4  23   20.89    5.34
 -12  -4  23   23.78    5.30
 -12  -4  23   33.54    6.10
  12   4 -23   14.73    4.76
  12  -4 -23   29.93    5.67
  12  -4 -23   36.05   12.34
  12   4 -23   19.72    5.72
 -12   4  22    7.88    4.12
 -12  -4  22   10.74    4.51
  12  -4 -22   19.45   11.02
  12  -4 -22   14.18    4.59
  12   4 -22   15.44    5.56
  12  -4 -21   -2.32    3.42
  12  -4 -21    7.75   10.28
  12   4 -21   -3.21    4.14
 -12   4  21    4.21    3.89
 -12  -4  21    5.60    3.76
  12  -4 -20   -0.52    2.31
  12  -4 -20    1.49    3.21
  12  -4 -20    2.70   11.67
 -12   4  20    0.68    3.64
 -12  -4  20    0.68    3.39
  12   4 -20    1.10    4.25
  12  -4 -19  145.07   12.27
  12  -4 -19  156.89   24.77
 -12   4  19  170.40   12.56
 -12  -4  19  163.18   12.38
  12   4 -19  136.72   14.49
  12  -4 -18    8.71    3.58
  12   4 -18    9.38    3.91
 -12  -4  18   17.16    4.09
  12   4 -18   16.65    5.79
  12  -4 -17  200.59   12.85
  12  -4 -17  179.62   13.61
  12   4 -17  198.68   14.32
  12   4 -17  197.08   17.02
  12  -4 -16   18.24    3.65
  12  -4 -16   16.25    4.07
  12  -4 -16   31.49   14.11
  12   4 -16   21.33    4.53
  12   4 -16   29.97    6.90
  12  -4 -15 1241.40   58.20
  12  -4 -15 1260.63   59.54
  12  -4 -15 1171.84   78.05
  12   4 -15 1318.09   59.94
  12   4 -15 1237.82   63.99
  12  -4 -14   55.71    5.72
  12  -4 -14   44.31    6.17
  12  -4 -14   34.70   14.26
  12   4 -14   46.34    5.97
  12   4 -14   53.07    8.51
  12  -4 -13   81.58    7.80
  12  -4 -13   85.32    7.33
  12  -4 -13   67.03    8.15
  12   4 -13   85.97    9.07
  12   4 -13   98.67    8.08
  12  -4 -13   77.47   17.08
  12   4 -13   84.38   10.12
  12  -4 -12    5.11    2.61
  12   4 -12    7.23    2.84
  12  -4 -12    3.65    2.72
  12  -4 -12    4.60    8.89
  12  -4 -11   19.36    3.59
  12  -4 -11   28.48    4.46
  12   4 -11   25.54    4.07
  12  -4 -10    7.53    2.81
  12   4 -10    5.19    2.59
  12  -4  -9  180.34   11.36
  12   4  -9  169.57   11.12
  12   4  -9  162.58   13.67
  12  -4  -8    4.42    2.43
  12   4  -8    4.93    2.57
  12  -4  -8   10.09    2.96
  12   4  -8    3.56    2.24
  12   4  -8    3.84    3.78
  12  -4  -7  960.88   48.61
  12  -4  -7 1051.33   48.47
  12   4  -7 1057.70   48.51
  12  -4  -7  990.69   47.64
  12   4  -7 1015.04   47.22
  12   4  -7 1039.15   51.14
  12  -4  -6    9.67    2.85
  12  -4  -6    5.75    2.70
  12  -4  -6    4.62    3.37
  12  -4  -6   12.01    3.61
  12   4  -6    2.16    3.95
  12  -4  -5 2845.31  123.13
  12   4  -5 2753.87  122.96
  12  -4  -5 2791.08  122.45
  12  -4  -5 2687.95  123.80
  12   4  -5 2750.95  124.86
  12  -4  -4  214.17   13.68
  12  -4  -4  206.89   14.94
  12   4  -4  232.25   15.52
  12   4  -4  215.27   13.98
  12  -4  -4  191.65   13.66
  12  -4  -3 3222.23  144.89
  12   4  -3 3365.51  146.76
  12   4  -2   16.44    4.45
  12  -4  -1 1289.50   67.25
  12   4  -1 1454.56   65.71
  12  -4   0    3.68    3.68
  12   4   0    1.86    3.13
  12  -4   0    2.64    3.91
  12  -4   1   65.44    8.18
  12  -4   1   68.73    6.78
  12   4   1   64.27    7.50
  12  -4   1   60.51    9.33
  12   4   1   59.66    6.56
  12  -4   1   52.04    8.75
  12  -4   2    2.28    3.52
  12   4   2    4.76    4.60
  12  -4   2    4.08    2.61
  12  -4   2   -1.00    3.75
  12   4   2    1.13    2.57
  12  -4   2   -1.01    4.46
  12   4   2    1.02    2.57
  12  -4   3    9.13    3.07
  12   4   3    4.25    2.72
  12   4   3    3.68    4.44
  12  -4   3    0.89    4.36
  12   4   3    7.33    5.27
  12   4   3    4.82    4.16
  12  -4   3    1.04    4.01
  12   4   3    4.47    4.08
  12   4   3    2.15    2.33
  12  -4   3    7.14    4.48
  12  -4   3    1.63    3.06
  12  -4   4    7.44    4.60
  12  -4   4    9.34    4.14
  12   4   4    4.81    4.67
  12   4   4   13.83    6.66
  12   4   4    5.91    4.28
  12  -4   4   12.52    3.84
  12  -4   4   12.81    5.18
  12   4   4   19.38    3.81
  12   4   4   17.16    3.77
  12   4   4   11.11    4.43
  12  -4   4   12.56    3.77
  12  -4   4    9.42    4.57
  12   4   4   12.83    3.36
  12  -4   5    5.35    3.99
  12   4   5    6.94    4.50
  12  -4   5    9.65    4.85
  12   4   5    6.50    5.61
  12  -4   5    6.04    3.10
  12   4   5    8.71    3.28
  12  -4   5    3.27    4.71
  12   4   5    5.63    2.50
  12   4   5   11.66    4.56
  12  -4   5    9.07    3.79
  12   4   5    5.81    3.42
  12  -4   5    5.91    4.47
  12   4   5    5.04    4.25
  12   4   6   88.89   10.89
  12  -4   6   71.60    8.62
  12  -4   6   92.36   10.79
  12  -4   6   99.16    8.99
  12   4   6   80.29    8.26
  12   4   6   63.40    9.47
  12   4   6   72.67   11.70
  12  -4   6   85.44    8.59
  12   4   6   70.83    7.94
  12   4   6   97.94   10.39
  12  -4   6   82.79   11.31
  12  -4   6   84.95   11.52
  12  -4   6   94.92   11.17
  12  -4   7 1347.36   60.34
  12   4   7 1144.35   62.49
  12  -4   7 1151.20   61.99
  12   4   7 1219.33   66.72
  12   4   7 1251.69   59.49
  12  -4   7 1342.13   60.34
  12   4   7 1243.32   59.38
  12  -4   7 1206.57   63.82
  12   4   7 1244.13   62.15
  12  -4   7 1198.61   64.78
  12  -4   7 1255.51   63.73
  12   4   8   19.75    4.70
  12   4   8   22.87    6.74
  12  -4   8   26.20    7.16
  12   4   8    4.32    6.97
  12  -4   8    4.43    5.16
  12   4   8   15.70    5.73
  12  -4   8   10.30    4.07
  12   4   8   14.97    4.65
  12  -4   8    9.60    6.16
  12  -4   8   22.27    4.92
  12  -4   8    3.19    4.73
  12   4   9 1101.84   62.46
  12  -4   9 1313.22   63.67
  12   4   9 1186.29   67.81
  12  -4   9 1388.17   61.88
  12   4   9 1254.62   60.84
  12  -4   9 1280.65   65.11
  12   4   9 1287.20   63.79
  12  -4   9 1333.97   61.45
  12   4   9 1293.42   60.87
  12  -4   9 1189.54   65.40
  12  -4   9 1240.82   64.73
  12   4  10   17.85    6.44
  12   4  10   25.29    8.69
  12  -4  10   15.07    6.42
  12   4  10   28.14    6.97
  12  -4  10   19.92    5.07
  12  -4  10   22.37    5.47
  12   4  10   23.78    5.12
  12  -4  10   11.82    6.35
  12  -4  10   23.57    6.95
  12   4  10   36.71    5.97
  12   4  11  409.97   31.44
  12  -4  11  451.43   26.52
  12  -4  11  490.47   29.82
  12   4  11  472.81   26.64
  12  -4  11  476.95   26.70
  12   4  11  502.67   26.89
  12   4  11  448.50   28.73
  12  -4  11  431.20   29.84
  12  -4  11  454.66   29.56
  12   4  12   60.11   11.10
  12   4  12   77.60    8.36
  12  -4  12   87.82    8.76
  12   4  12   62.13    7.64
  12  -4  12   81.90   10.51
  12   4  12   68.72    9.44
  12  -4  12   53.25    7.39
  12  -4  12   77.86   10.74
  12   4  13   62.18    7.81
  12   4  13   59.68   10.60
  12  -4  13   69.82    7.86
  12   4  13   69.81    7.87
  12  -4  13   72.55    9.61
  12   4  13   58.34    9.28
  12  -4  13   78.25   10.80
  12  -4  13   60.40    7.62
  12   4  14    8.74    6.03
  12  -4  14    3.65    3.94
  12   4  14    2.90    4.07
  12  -4  14    8.10    3.46
  12  -4  14    5.16    4.89
  12   4  14    3.78    2.86
  12   4  15  525.77   34.17
  12  -4  15  569.87   30.11
  12  -4  15  563.71   32.34
  12   4  15  611.55   33.70
  12   4  15  564.44   30.14
  12  -4  15  572.82   33.60
  12   4  16   -0.97    4.20
  12  -4  16    2.28    3.81
  12   4  16    3.48    4.11
  12  -4  16    2.65    3.90
  12  -4  16   -0.54    2.62
  12   4  16    1.09    2.84
  12  -4  17   -1.32    2.98
  12   4  17    7.10    4.17
  12  -4  17    4.70    4.00
  12  -4  17    3.92    2.80
  12   4  17    2.44    2.79
  12  -4  18   -1.62    2.81
  12  -4  18    0.67    3.38
  12  -4  18    1.72    2.31
  12  -4  19    5.24    2.53
  12  -4  19    1.66    2.97
  12  -4  20    5.05    2.70
  12  -4  21  517.04   25.53
 -12  -6  30    1.85    2.02
  12  -6 -29  208.33   14.48
 -12   6  29  200.89   12.02
  12  -6 -28   19.07    5.73
  12   6 -27   29.46    6.71
  12  -6 -27   14.43    6.58
  12   6 -26    7.06    5.57
  12  -6 -26   10.81    6.79
  12  -6 -25  205.97   21.13
  12  -6 -24   -1.84    7.74
  12  -6 -23   89.09    8.30
  12  -6 -23   98.24   16.34
  12  -6 -22   11.31    3.62
  12  -6 -22   11.69   10.35
 -12  -6  21  572.88   33.01
  12  -6 -21  600.63   31.68
  12  -6 -21  612.24   33.95
  12  -6 -21  633.73   47.81
  12   6 -21  617.03   33.32
  12   6 -21  558.81   35.09
 -12  -6  20   11.11    4.35
 -12  -6  20    5.24    3.15
  12  -6 -20    9.58    3.82
  12  -6 -20    9.21    4.66
  12  -6 -20   11.20   12.96
  12   6 -20   13.99    4.33
  12   6 -20    8.89    5.04
 -12  -6  19  182.30   14.90
  12  -6 -19  188.60   13.91
  12  -6 -19  195.55   15.28
  12  -6 -19  227.33   30.18
  12   6 -19  203.07   15.11
 -12  -6  19  203.91   13.86
  12   6 -19  200.31   17.71
 -12  -6  18   13.51    4.04
 -12  -6  18   15.39    4.50
  12  -6 -18   13.79    4.28
  12  -6 -18   14.03    4.56
  12   6 -18   13.05    4.18
  12   6 -18   17.64    5.93
 -12  -6  17   11.95    4.53
  12  -6 -17   13.46    3.90
  12  -6 -17    7.47    3.63
  12   6 -17   12.41    3.97
  12   6 -17   13.06    5.97
 -12  -6  17    9.75    3.46
 -12  -6  16   68.95    8.14
  12  -6 -16   51.93    6.77
  12   6 -16   63.23    7.36
  12   6 -16   64.41    9.84
  12  -6 -15   60.74    6.93
  12  -6 -15   45.80   15.84
  12   6 -15   70.69    7.60
  12   6 -15   76.87   10.70
  12  -6 -14   20.68    4.51
  12  -6 -14   22.88   13.56
  12   6 -14   24.90    4.47
  12   6 -14   25.64    7.18
  12  -6 -13    0.57    2.75
  12   6 -13    3.28    2.69
  12  -6 -13   -2.62   11.85
  12   6 -13   -1.14    4.67
  12  -6 -12   87.69    8.17
  12  -6 -12   77.71    7.87
  12  -6 -12   74.84    8.01
  12  -6 -12   68.64   16.17
  12   6 -12   81.18    7.45
  12   6 -12   66.72   10.27
  12  -6 -11 1003.58   48.47
  12  -6 -11 1021.74   48.83
  12  -6 -11 1027.62   49.52
  12  -6 -11  939.59   62.00
  12   6 -11 1001.11   47.85
  12   6 -11 1000.22   53.81
  12  -6 -10  749.45   37.63
  12  -6 -10  737.72   37.92
  12  -6 -10  752.10   38.43
  12  -6 -10  725.53   48.99
  12   6 -10  777.88   37.01
  12  -6  -9  258.90   17.31
  12  -6  -9  265.81   16.75
  12  -6  -9  284.74   17.27
  12   6  -9  290.00   22.92
  12  -6  -9  258.53   24.79
  12   6  -9  288.49   16.15
  12  -6  -8  791.35   39.96
  12  -6  -8  824.62   39.95
  12  -6  -8  791.74   40.38
  12  -6  -8  878.27   49.78
  12  -6  -8  763.60   39.27
  12  -6  -7  113.86    9.69
  12  -6  -7  102.92    9.31
  12  -6  -7  116.19    9.73
  12  -6  -7  112.24   14.17
  12   6  -7   96.47   11.34
  12  -6  -6   20.66    4.65
  12  -6  -6   22.53    4.59
  12   6  -6   17.49    6.76
  12  -6  -6   20.96    4.45
  12  -6  -6   24.83    7.33
  12   6  -6   10.64    4.74
  12   6  -5  236.77   18.43
  12  -6  -5  246.99   16.23
  12  -6  -5  245.03   16.52
  12   6  -5  250.22   20.90
  12  -6  -5  255.82   20.38
  12  -6  -4   45.20    6.52
  12  -6  -4   45.17    6.60
  12   6  -4   45.37    9.24
  12  -6  -4   47.59    8.24
  12   6  -4   59.78    8.78
  12  -6  -3  553.76   31.12
  12  -6  -3  530.53   30.99
  12  -6  -3  552.77   30.17
  12  -6  -3  558.34   31.06
  12   6  -3  525.92   34.96
  12   6  -3  571.30   32.67
  12  -6  -2    8.73    4.27
  12  -6  -2    2.46    3.97
  12  -6  -2    0.81    3.24
  12   6  -2    2.59    4.50
  12   6  -2    3.73    4.03
  12  -6  -1   42.88    6.77
  12  -6  -1   37.32    7.03
  12  -6  -1   37.61    7.05
  12   6  -1   44.60    9.01
  12   6  -1   30.39    6.79
  12   6   0  614.39   33.59
  12   6   0  550.47   36.38
  12  -6   0  562.12   33.47
  12  -6   0  551.56   32.17
  12   6   1  108.00   13.89
  12  -6   1  117.91   13.83
  12   6   1  141.15   12.49
  12  -6   1  118.11   11.62
  12   6   2 1294.35   70.71
  12  -6   2 1308.11   70.05
  12   6   2 1446.02   67.05
  12  -6   2 1385.84   70.57
  12  -6   2 1307.53   65.60
  12   6   3 1523.22   79.22
  12   6   3 1428.14   75.55
  12  -6   3 1370.96   74.73
  12   6   3 1571.37   71.24
  12  -6   3 1345.48   74.54
  12   6   4  654.43   41.67
  12   6   4  525.35   37.04
  12  -6   4  579.00   37.61
  12   6   4  566.51   32.79
  12   6   4  622.26   33.45
  12  -6   4  637.25   39.02
  12   6   5   72.60   11.63
  12   6   5   61.80    7.91
  12  -6   5   57.35   10.76
  12   6   5   82.63    9.17
  12   6   5   70.03   12.88
  12  -6   5   53.70   10.68
  12  -6   5   74.26   10.13
  12   6   6  121.33   16.50
  12   6   6  106.38   13.91
  12   6   6   88.05    9.53
  12  -6   6  110.95   14.54
  12   6   6  121.63   11.92
  12  -6   6  101.90   14.39
  12  -6   6  117.09   12.71
  12   6   7    5.24    6.96
  12   6   7    7.01    6.21
  12  -6   7    8.30    6.81
  12   6   7    2.71    4.09
  12  -6   7   -1.48    6.38
  12  -6   7    6.56    5.17
  12   6   8  242.00   24.10
  12   6   8  299.73   23.52
  12  -6   8  262.55   22.29
  12   6   8  296.39   20.13
  12  -6   8  239.73   22.23
  12  -6   8  231.09   19.38
  12   6   9  362.08   29.51
  12   6   9  305.85   25.62
  12  -6   9  340.31   25.66
  12   6   9  343.80   23.17
  12  -6   9  345.56   26.72
  12  -6   9  362.93   24.68
  12   6  10   68.44   11.20
  12   6  10   97.74   10.97
  12  -6  10   84.19   12.05
  12  -6  10   90.52   11.66
  12  -6  10   75.47   10.30
  12   6  11    5.93    4.86
  12   6  11   11.45    7.06
  12   6  11    3.66    3.96
  12  -6  11    5.01    7.15
  12  -6  11    1.99    4.41
  12  -6  11    6.55    4.84
  12   6  12    7.71    6.31
  12  -6  12    2.95    4.45
  12   6  12    0.89    4.12
  12  -6  12    9.23    5.11
  12  -6  12   12.35    5.35
  12   6  13  462.67   33.10
  12  -6  13  476.11   28.87
  12   6  13  533.62   29.41
  12  -6  13  538.02   31.36
  12  -6  13  428.02   28.46
  12   6  14  242.95   21.65
  12  -6  14  259.90   18.10
  12   6  14  296.23   19.19
  12  -6  14  291.67   20.28
  12   6  15  473.12   30.13
  12   6  15  477.42   26.90
  12  -6  15  437.67   27.07
  12   6  16  129.38   12.94
  12   6  16  125.49   11.01
  12  -6  16  138.47   11.64
  12   6  17  623.12   33.47
  12   6  17  584.72   31.18
  12   6  18    9.45    3.38
  12  -6  19    0.44    2.19
  12   6  19    1.49    2.21
  12  -8 -27    0.62    2.89
 -12  -8  27   -1.07    2.16
  12  -8 -26  146.22   13.37
 -12  -8  26  134.61    9.98
  12  -8 -25   25.05    4.71
  12  -8 -25   23.39    7.30
  12   8 -24    2.96    4.67
  12  -8 -24    2.90    6.09
  12  -8 -23    3.47    2.66
  12   8 -23   -1.25    5.27
  12  -8 -23   12.20    8.58
  12  -8 -22   14.48    3.96
  12   8 -22   13.66    7.20
  12  -8 -22   10.24    9.29
  12  -8 -21    3.23    3.58
  12   8 -21    1.78    7.31
  12  -8 -21   -2.36    9.67
  12   8 -20   20.41    9.88
  12  -8 -20   10.67   10.65
  12  -8 -20   19.40    4.88
  12  -8 -19    3.60    3.41
  12   8 -19    8.99    9.21
  12  -8 -19   14.75   14.52
  12  -8 -18  865.55   44.51
  12   8 -18  898.26   59.18
  12  -8 -17    2.93    3.60
  12   8 -17   -2.46    9.49
  12  -8 -17   -0.86    3.31
  12   8 -17    3.38    4.22
  12  -8 -16  394.08   23.67
  12   8 -16  416.43   36.52
  12  -8 -16  387.67   24.47
  12   8 -16  377.19   26.86
  12  -8 -15   23.74    5.56
  12   8 -15   32.90   11.83
  12  -8 -15   22.92   13.81
  12  -8 -15   22.89    5.33
  12   8 -15   25.23    7.32
  12  -8 -14   65.58    8.07
  12   8 -14  105.11   17.51
  12  -8 -14   72.06    8.60
  12  -8 -14   71.61   18.50
  12   8 -14   55.07    9.88
  12  -8 -13    2.13    3.14
  12   8 -13    2.10    8.12
  12  -8 -13    3.15    3.04
  12  -8 -13    2.91   10.87
  12   8 -13   -2.47    5.21
  12  -8 -12  115.08   10.77
  12   8 -12  115.01   17.60
  12  -8 -12  122.38   11.43
  12  -8 -12  144.13   21.88
  12   8 -12  145.35   15.18
  12  -8 -11    6.44    3.72
  12   8 -11   -1.88    6.54
  12  -8 -11    1.55    2.89
  12  -8 -11    2.44    9.42
  12   8 -11    2.49    4.80
  12  -8 -10  440.46   26.18
  12  -8 -10  444.56   26.74
  12  -8 -10  449.60   25.83
  12   8 -10  490.44   35.37
  12  -8 -10  509.54   39.07
  12   8 -10  471.41   30.91
  12  -8  -9   38.25    6.44
  12  -8  -9   31.94    5.53
  12   8  -9   27.76    9.59
  12  -8  -9   42.17    6.74
  12  -8  -9   28.33   10.80
  12   8  -9   35.71    7.93
  12  -8  -8   26.98    5.63
  12  -8  -8   29.29    5.55
  12   8  -8   23.70    8.88
  12  -8  -8   31.35    5.84
  12  -8  -8   22.19    9.35
  12  -8  -7   -0.77    3.69
  12  -8  -7   -1.44    3.74
  12   8  -7   -1.67    6.64
  12  -8  -7    1.69    5.89
  12  -8  -6   69.82    8.69
  12   8  -6   86.43   13.58
  12  -8  -6  100.92   14.00
  12   8  -6   89.53   12.01
  12  -8  -5    1.58    3.73
  12  -8  -5    7.12    6.15
  12   8  -5    1.20    4.64
  12  -8  -4 1468.92   70.45
  12  -8  -4 1404.85   69.52
  12  -8  -4 1472.50   74.52
  12   8  -4 1399.75   72.79
  12  -8  -3   61.00    8.80
  12   8  -3   66.47   13.24
  12  -8  -3   56.04    9.85
  12  -8  -3   67.08    9.03
  12   8  -3   65.05   10.17
  12  -8  -2  229.08   17.40
  12  -8  -2  230.49   17.38
  12   8  -2  237.87   23.78
  12  -8  -2  212.01   17.40
  12   8  -2  240.33   22.86
  12  -8  -2  222.68   18.83
  12   8  -2  224.80   19.07
  12  -8  -1    6.18    4.09
  12  -8  -1    5.22    4.83
  12   8  -1   12.12    8.02
  12  -8  -1   -0.98    3.80
  12   8  -1    6.94    5.36
  12   8  -1    7.62    7.35
  12  -8   0   12.04    4.65
  12   8   0   11.58    8.34
  12   8   0    6.96    7.34
  12  -8   0   12.43    5.79
  12   8   0   11.37    5.40
  12  -8   1   28.78    6.01
  12   8   1   46.90   11.41
  12   8   1   40.05   10.59
  12   8   1   34.36    7.47
  12  -8   2  754.30   43.08
  12   8   2  821.59   52.76
  12   8   2  804.76   50.19
  12   8   2  813.09   44.54
  12  -8   3    3.07    4.64
  12   8   3   -1.99    7.68
  12   8   3    8.63    7.07
  12   8   3   11.39    5.29
  12   8   4  151.47   19.25
  12   8   4  155.21   18.09
  12   8   4  100.55   11.82
  12   8   5    5.96    8.13
  12   8   5    3.35    6.67
  12   8   5    0.93    3.23
  12   8   6  380.64   32.17
  12   8   6  390.84   30.30
  12   8   7  104.68   14.55
  12   8   8 1041.53   59.00
  12   8   9   17.04    7.80
  12   8   9   22.74    4.82
  12   8  10 1101.53   57.30
  12   8  10  993.96   49.95
  12   8  11   28.73    8.93
  12   8  11   21.63    6.84
  12   8  11   20.90    4.53
  12   8  12    1.36    6.28
  12   8  12    6.63    3.21
  12   8  13   -2.37    5.93
  12   8  13    1.00    2.59
  12   8  14   13.03    6.12
  12   8  14    5.19    2.18
  12  -8  15    0.54    2.61
  12   8  15    3.30    4.13
  12   8  15   -0.36    1.09
  12  -8  16   30.32    4.28
  12   8  16   36.90    5.79
  12  -8  17   22.91    3.49
  12 -10 -24    1.26    2.98
  12 -10 -23  137.10   10.40
  12 -10 -23  121.00   12.62
  12 -10 -22   79.06   11.54
  12  10 -21   59.90    8.64
  12 -10 -21   86.53   13.28
  12 -10 -20    5.88    3.36
  12  10 -20    4.48    5.07
  12 -10 -20    1.77    7.43
  12 -10 -19   85.96    8.72
  12  10 -19   69.88   11.83
  12 -10 -19   68.18   15.93
  12 -10 -18   39.48    6.31
  12  10 -18   18.96    8.26
  12 -10 -17    4.42    3.96
  12  10 -17   -1.99    8.15
  12 -10 -16  113.46   10.63
  12  10 -16   75.14   15.69
  12 -10 -15   16.11    5.11
  12  10 -15   14.10   10.41
  12 -10 -15    2.86   11.39
  12  10 -14   16.83   10.64
  12 -10 -14    8.64   11.46
  12 -10 -14    1.55    3.82
  12 -10 -13    5.46    4.33
  12  10 -13    4.78    8.63
  12 -10 -13    2.82    9.82
  12 -10 -12  113.51   10.81
  12  10 -12   93.49   17.79
  12 -10 -12  111.57   20.19
  12 -10 -11  113.40   10.84
  12  10 -11   60.76   14.65
  12 -10 -11   98.37   18.97
  12  10 -10  572.42   41.66
  12 -10 -10  473.05   41.17
  12 -10  -9   88.89   16.87
  12  10  -9  117.08   17.76
  12  10  -9  100.15   17.12
  12 -10  -9  100.63   10.45
  12  10  -8  619.90   44.21
  12 -10  -8  549.53   32.70
  12  10  -8  629.03   43.56
  12 -10  -8  663.28   45.10
  12 -10  -7   31.27    6.61
  12  10  -7   34.65   11.19
  12  10  -7   21.63    9.37
  12 -10  -7   21.52    9.70
  12 -10  -6  139.91   13.49
  12 -10  -6  154.44   13.62
  12 -10  -6  159.17   13.49
  12  10  -6  140.20   18.72
  12  10  -6  116.29   17.96
  12 -10  -6  145.37   18.30
  12 -10  -5  302.64   20.96
  12 -10  -5  320.79   21.34
  12  10  -5  302.40   28.24
  12  10  -5  267.64   26.14
  12 -10  -5  308.76   26.44
  12 -10  -5  274.94   20.02
  12 -10  -4   63.12    8.57
  12 -10  -4   52.00    8.07
  12  10  -4   46.91   11.69
  12 -10  -4   50.72    8.17
  12  10  -4   52.19   12.40
  12 -10  -4   44.30   10.42
  12 -10  -3  415.69   25.64
  12  10  -3  462.14   35.00
  12  10  -3  435.83   33.39
  12 -10  -3  394.84   28.94
  12 -10  -3  391.28   26.09
  12  10  -2  271.83   25.34
  12  10  -2  267.78   24.72
  12 -10  -2  217.17   17.85
  12 -10  -2  231.02   19.52
  12 -10  -2  202.78   16.26
  12 -10  -1   93.65   11.59
  12  10  -1   90.15   15.40
  12 -10  -1   69.21    9.82
  12 -10  -1   73.74    8.63
  12  10   0  297.24   27.51
  12  10   1   50.90   12.39
  12  10   2  498.53   37.40
  12  10   2  515.04   36.77
  12  10   3  164.15   19.32
  12  10   3  123.19   16.83
  12  10   4  218.42   22.91
  12  10   4  282.40   24.05
  12  10   5   20.53    9.54
  12  10   5   27.52    8.66
  12  10   6   29.25    9.83
  12  10   6   12.97    6.86
  12  10   7   26.61    7.60
  12  10   7   36.47    9.36
  12  10   8  509.25   33.91
  12  10   8  479.89   31.79
  12  10   9  104.36   12.31
  12  10   9  114.26   13.84
  12  10  10  129.15   13.90
  12  10  11    8.51    5.09
  12  10  12   19.52    5.18
  12 -12 -17   49.38    6.69
  12 -12 -16   -1.36    3.40
  12 -12 -16   -2.76    6.80
  12 -12 -15   91.80    9.20
  12  12 -15   63.52    9.89
  12 -12 -15   86.95   13.97
  12 -12 -14   15.62    4.64
  12 -12 -14   16.17    4.21
  12  12 -14   16.61    6.79
  12 -12 -14    9.13    8.66
  12 -12 -13   66.82    8.38
  12  12 -13   78.52   12.83
  12 -12 -13   88.80   16.36
  12 -12 -12    0.70    3.33
  12  12 -12    1.68    7.25
  12 -12 -12    6.50    8.87
  12 -12 -11   36.68    6.22
  12  12 -11   30.20   10.08
  12 -12 -11    9.08   11.24
  12 -12 -10   -0.68    3.15
  12 -12 -10    1.38    3.19
  12  12 -10   12.64    8.36
  12 -12 -10   -2.31    9.72
  12 -12  -9  196.82   14.89
  12  12  -9  254.66   24.02
  12 -12  -9  244.33   26.72
  12 -12  -8    8.41    3.66
  12 -12  -8   19.70   10.98
  12  12  -8    5.23    7.14
  12  12  -8    4.74    6.99
  12 -12  -7   46.93    6.32
  12  12  -7   30.76    9.29
  12  12  -7   60.56   12.07
  12 -12  -7   32.52   11.58
  12 -12  -6   -1.15    2.00
  12  12  -6    1.62    6.26
  12  12  -6    1.62    7.15
  12 -12  -6    3.67    8.13
  12  12  -5  513.73   36.81
  12 -12  -5  481.91   36.37
  12  12  -4   80.75   13.49
  12 -12  -4   61.73   11.35
  12  12  -3  571.62   29.69
  12  12  -3  606.13   29.34
  12  12  -2    2.88    6.67
  12  12  -2    4.10    6.05
  12 -12  -2    0.92    1.78
  12  12  -1  174.56   18.67
  12  12  -1  213.12   18.97
  12  12   0   10.42    6.79
  12  12   0    9.99    6.04
  12  12   1  292.52   23.16
  12  12   1  281.33   22.15
  12  12   2    9.10    5.82
  12  12   3  228.78   18.60
  12  12   4   12.27    5.18
  12  12   5  100.36   10.83
  12  12   5  109.00   11.13
  12  12   6   -2.89    3.56
  12  12   6    2.20    3.80
  12  12   7  267.13   17.10
  12  12   8    3.80    2.80
  13   1 -33    4.49    2.20
  13  -1 -32   10.44    3.68
  13   1 -32    4.39    3.06
 -13   1  31   -1.79    2.93
  13  -1 -31    0.70    3.31
  13   1 -31    4.91    3.65
 -13   1  30   44.42    5.90
 -13   1  29  103.66    9.70
 -13   1  28  124.59   11.02
 -13   1  27    4.47    4.07
  13  -1 -27    1.60    6.16
 -13   1  26    1.57    4.22
  13  -1 -26    5.34    7.29
 -13  -1  25   93.86    9.73
  13  -1 -25  113.18   17.21
  13   1 -25   88.88    9.83
 -13   1  25   85.50    9.68
 -13  -1  24  122.17   11.48
 -13   1  24  111.01   10.58
  13  -1 -24  134.42   18.34
  13   1 -24  140.23   12.52
  13  -1 -24  136.62   12.48
 -13   1  24  130.26   11.92
 -13  -1  23  167.33   13.37
 -13   1  23  156.47   12.54
  13  -1 -23  181.70   21.91
  13   1 -23  130.30   17.93
  13   1 -23  150.09   13.29
  13  -1 -23  166.53   14.06
 -13   1  23  163.62   13.62
 -13  -1  22  251.32   17.58
 -13   1  22  255.76   17.01
  13   1 -22  205.41   22.53
  13  -1 -22  279.03   26.96
  13   1 -22  244.25   17.96
  13  -1 -22  264.89   18.35
 -13   1  22  275.76   18.29
 -13  -1  21    1.44    3.10
 -13   1  21    3.25    3.08
  13   1 -21   -1.74    6.29
  13  -1 -21   -4.00    7.71
  13   1 -21   -1.52    3.11
  13  -1 -21    1.57    3.40
 -13   1  21    1.49    4.20
  13   1 -21   -1.14    4.52
  13  -1 -20  117.60    9.47
  13   1 -20  119.14   16.61
  13  -1 -20  128.22   18.67
  13   1 -20  116.63   10.68
  13  -1 -20  106.49   10.69
  13   1 -20  139.55   13.93
  13  -1 -19    0.50    2.17
  13   1 -19   -0.66    3.06
  13  -1 -19   -0.69    2.82
  13   1 -19    3.38    4.86
  13  -1 -18  733.39   35.91
  13   1 -18  689.03   36.98
  13  -1 -18  739.01   37.56
  13   1 -18  776.60   42.44
  13  -1 -17   70.32    6.58
  13   1 -17   54.41   11.09
  13  -1 -17   67.68   13.29
  13   1 -17   65.36    7.09
  13  -1 -17   70.82    7.47
  13   1 -17   68.49    9.98
  13  -1 -16 1341.13   62.09
  13   1 -16 1347.85   72.71
  13  -1 -16 1421.15   75.36
  13   1 -16 1276.09   62.94
  13  -1 -16 1454.31   63.77
  13  -1 -15  100.38    7.56
  13   1 -15   85.86   12.84
  13  -1 -15   94.92   14.84
  13   1 -15   85.21    7.82
  13  -1 -15   85.06    7.95
  13  -1 -15  117.27   13.05
  13   1 -14  270.48   22.71
  13  -1 -14  274.13   15.73
  13  -1 -14  308.35   25.82
  13   1 -14  263.62   16.43
  13  -1 -14  294.63   16.91
  13  -1 -14  318.15   22.63
  13  -1 -13  328.31   17.98
  13   1 -13  335.94   18.81
  13  -1 -13  333.32   18.91
  13   1 -13  333.23   22.78
  13  -1 -13  375.74   24.58
  13  -1 -12  132.88    9.16
  13   1 -12  140.34    9.98
  13   1 -12  150.87   13.56
  13  -1 -12  135.91   13.54
  13  -1 -11   85.38    6.80
  13   1 -11   87.24    7.40
  13   1 -11   91.21   10.22
  13  -1 -11  114.15   11.41
  13  -1 -10  742.05   35.37
  13   1 -10  705.10   35.76
  13   1 -10  794.75   39.71
  13  -1 -10  768.52   40.30
  13  -1  -9  703.08   34.70
  13   1  -9  738.18   38.37
  13  -1  -9  772.64   38.83
  13   1  -8   -1.31    3.39
  13  -1  -8    2.62    3.40
  13   1  -7   74.01    6.94
  13   1  -7   65.32    7.32
  13  -1  -7   66.23    7.20
  13   1  -6  771.10   40.89
  13   1  -6  892.13   41.90
  13  -1  -6  883.87   41.08
  13   1  -5    4.95    3.07
  13  -1  -5    2.72    2.41
  13   1  -4 1785.91   80.86
  13   1  -4 1792.36   79.65
  13  -1  -4 1735.64   78.09
  13   1  -3   28.36    4.58
  13   1  -3   21.00    3.87
  13   1  -2  313.90   16.69
  13   1  -2  306.23   18.93
  13   1  -1   47.37    5.54
  13   1  -1   50.68    4.59
  13   1   0  528.05   26.13
  13   1   0  473.86   23.09
  13   1   1  146.61   10.78
  13   1   1  148.10   10.81
  13   1   2 1410.43   65.76
  13  -1   2 1439.83   68.77
  13   1   2 1407.67   65.78
  13   1   3    7.54    4.43
  13   1   3    7.31    3.31
  13  -1   3    5.69    4.01
  13   1   3    7.83    4.01
  13   1   3    1.12    2.66
  13   1   4  547.26   33.03
  13  -1   4  573.07   33.45
  13   1   4  641.15   32.08
  13   1   4  613.38   31.85
  13   1   4  661.05   34.75
  13   1   5   98.06    9.69
  13  -1   5   88.29   10.20
  13   1   5   89.89   10.91
  13   1   5  104.96    9.37
  13   1   5  107.96    9.54
  13   1   5  113.89   11.54
  13   1   6   58.42    8.89
  13   1   6   55.24    6.71
  13  -1   6   37.19    6.85
  13   1   6   57.03    7.12
  13  -1   6   64.54    9.09
  13   1   6   49.05    8.01
  13   1   6   55.97    7.06
  13   1   7  236.39   16.61
  13  -1   7  272.02   18.21
  13   1   7  240.99   19.43
  13   1   7  300.92   18.37
  13   1   7  255.82   19.37
  13   1   7  275.04   17.82
  13  -1   7  301.25   21.06
  13   1   8  321.09   24.21
  13   1   8  398.32   23.58
  13  -1   8  389.43   26.06
  13   1   8  367.73   22.96
  13   1   8  363.84   24.56
  13  -1   8  384.59   25.12
  13   1   9    9.37    5.72
  13   1   9   23.69    5.60
  13  -1   9   26.51    6.90
  13   1   9   26.74    5.68
  13  -1   9   14.43    6.00
  13   1  10  134.09   14.14
  13   1  10   94.66   11.46
  13   1  10  117.67   12.38
  13  -1  10  111.98   13.59
  13   1  11  199.76   15.68
  13   1  11  190.37   15.32
  13  -1  11  203.91   17.64
  13   1  12   85.78   10.03
  13   1  12  105.11   10.59
  13  -1  12   79.46   10.71
  13   1  12   73.16   10.53
  13   1  13   14.07    3.94
  13  -1  13    3.03    4.69
  13   1  13    3.89    4.51
  13   1  13   12.87    4.34
  13   1  14  341.58   21.98
  13   1  14  331.01   21.92
  13   1  14  379.54   22.37
  13  -1  14  348.38   23.81
  13   1  14  363.23   23.85
  13   1  15   10.13    3.76
  13  -1  15    7.43    4.75
  13   1  15    2.77    4.29
  13   1  15    9.13    4.51
  13   1  16   33.66    5.27
  13  -1  16   45.02    7.69
  13   1  16   35.83    7.04
  13   1  16   43.49    6.25
  13  -1  17    0.79    3.87
  13   1  17    3.22    4.11
  13   1  17    1.81    3.30
  13  -1  18   -1.17    2.87
  13  -1  18   -2.77    3.84
  13   1  18   -1.44    3.87
  13   1  18   -0.54    2.86
  13  -1  19   17.73    3.61
  13  -1  19   16.95    4.25
  13   1  19   17.92    4.48
  13  -1  19   18.80    4.59
  13   1  19   15.93    3.88
  13  -1  20   92.64    6.95
  13   1  20   95.35    7.41
  13  -1  20   88.08    7.09
  13   1  21   48.48    5.21
  13  -1  21   48.80    4.87
  13  -1  21   45.83    5.05
  13   1  21   48.62    5.25
  13   1  22   47.45    4.22
  13   1  22   41.48    4.10
 -13  -3  32    1.41    1.57
  13  -3 -31   84.51    7.98
  13   3 -31   89.65    8.27
 -13   3  30   39.30    5.10
 -13  -3  30   35.01    4.76
  13  -3 -30   38.17    6.01
  13   3 -30   30.26    5.60
 -13  -3  29   35.75    5.03
 -13   3  29   43.64    5.62
  13  -3 -29   27.95    7.12
  13  -3 -29   18.33    5.71
  13   3 -29   29.42    6.35
 -13   3  28    1.82    3.56
 -13  -3  28    5.92    3.34
  13  -3 -28    3.81    6.13
 -13   3  27   26.74    5.60
 -13  -3  27   18.99    4.66
  13  -3 -27   30.12    9.58
 -13   3  26   20.80    5.33
 -13  -3  26   27.41    5.52
  13  -3 -26   26.02    8.92
  13  -3 -25  141.87   19.48
 -13   3  25  162.09   13.24
 -13  -3  25  162.68   13.29
  13   3 -24   39.18    7.42
 -13   3  24   37.58    6.67
 -13  -3  24   34.58    6.75
 -13  -3  24   37.82    6.50
  13  -3 -24   40.30   12.55
  13   3 -24   31.30    6.46
 -13  -3  23   81.94    9.51
  13  -3 -23   91.68    9.39
  13  -3 -23   92.63   18.09
  13   3 -23   67.92    9.28
 -13   3  23   96.58    9.93
 -13  -3  23   98.52    9.91
  13   3 -23   80.73   10.56
 -13  -3  22   45.01    6.82
  13  -3 -22   40.92    6.81
  13  -3 -22   63.71   14.88
  13   3 -22   44.44    7.16
 -13   3  22   48.23    7.00
 -13  -3  22   45.09    6.77
  13   3 -22   40.10    7.63
 -13  -3  21  679.68   36.09
  13  -3 -21  681.05   35.52
  13  -3 -21  642.95   48.85
  13   3 -21  640.71   36.10
 -13   3  21  661.73   35.53
 -13  -3  21  697.79   35.78
  13   3 -21  605.15   38.01
  13  -3 -20   94.96    9.67
  13   3 -20  103.49   10.52
  13  -3 -20  112.26   20.06
 -13   3  20  101.52    9.92
 -13  -3  20  120.10   10.28
  13   3 -20  103.80   12.54
  13  -3 -19   11.94    3.92
  13   3 -19   11.07    4.11
  13   3 -19    5.68    5.04
  13  -3 -18  295.27   18.75
  13   3 -18  315.55   22.74
  13  -3 -17   46.84    6.14
  13   3 -17   43.93    8.52
  13  -3 -16   11.43    3.74
  13  -3 -16   18.66   11.49
  13   3 -16   16.99    5.36
  13  -3 -15    2.19    2.24
  13  -3 -15    9.11    9.32
  13   3 -15    4.07    4.39
  13  -3 -14  125.75    9.78
  13  -3 -14  114.81    8.46
  13  -3 -14  125.84   19.26
  13   3 -14  121.13    9.64
  13  -3 -13  474.63   23.47
  13  -3 -13  470.69   24.74
  13  -3 -13  433.32   26.11
  13   3 -13  461.81   26.67
  13  -3 -13  434.78   36.97
  13   3 -13  459.66   24.65
  13  -3 -12  203.68   12.35
  13  -3 -12  187.83   22.63
  13  -3 -12  205.10   14.70
  13   3 -12  188.49   14.71
  13  -3 -12  215.13   13.48
  13   3 -12  229.85   13.74
  13  -3 -11 3108.88  137.26
  13  -3 -11 3224.29  138.64
  13   3 -11 3083.75  138.45
  13   3 -11 3225.68  142.61
  13  -3 -10  182.64   12.02
  13  -3 -10  167.04   11.04
  13   3 -10  193.94   12.08
  13   3 -10  183.20   14.42
  13  -3  -9 1454.80   67.01
  13  -3  -9 1486.56   68.14
  13   3  -9 1594.83   68.00
  13   3  -9 1385.95   70.73
  13  -3  -8    2.74    2.19
  13  -3  -8    7.30    2.63
  13   3  -8   11.30    3.25
  13  -3  -8    4.60    2.82
  13   3  -8    6.54    3.85
  13  -3  -7  403.06   21.83
  13   3  -7  388.09   21.87
  13  -3  -7  379.79   20.63
  13  -3  -7  402.16   21.32
  13   3  -7  373.09   23.10
  13  -3  -6    5.74    2.92
  13  -3  -6   12.35    3.42
  13   3  -6   11.60    3.18
  13   3  -6   10.15    3.94
  13  -3  -5  559.70   30.09
  13   3  -5  566.45   30.42
  13   3  -5  617.22   31.62
  13  -3  -5  585.37   29.63
  13  -3  -4  574.07   31.11
  13   3  -4  589.45   31.36
  13   3  -4  650.59   32.37
  13   3  -3  459.76   25.60
  13   3  -2   41.24    5.84
  13  -3  -1   60.78    8.36
  13   3  -1   52.99    6.26
  13  -3   0    1.57    3.49
  13   3   0   11.34    3.36
  13  -3   0    3.50    4.25
  13   3   0   10.20    3.32
  13  -3   0   10.23    2.90
  13  -3   0    5.83    4.27
  13   3   1  798.08   43.28
  13  -3   1  800.47   37.90
  13   3   1  841.96   38.36
  13  -3   1  764.16   41.45
  13   3   1  780.10   37.14
  13  -3   1  767.61   41.39
  13   3   2  594.76   34.12
  13  -3   2  534.60   32.09
  13  -3   2  539.74   28.48
  13   3   2  586.57   28.87
  13   3   2  552.96   27.28
  13  -3   2  591.88   32.83
  13  -3   3  857.42   46.10
  13   3   3  883.57   47.90
  13  -3   3  890.53   46.97
  13   3   3  880.23   49.43
  13  -3   3  968.77   44.75
  13   3   3  947.67   44.48
  13  -3   3  975.15   49.09
  13  -3   3  982.61   44.87
  13   3   3  973.32   46.94
  13   3   3  912.35   44.50
  13  -3   3 1006.96   49.48
  13  -3   4  170.46   14.74
  13   3   4  196.61   16.95
  13  -3   4  188.86   15.91
  13   3   4  172.60   16.97
  13  -3   4  188.46   13.64
  13   3   4  188.25   13.52
  13  -3   4  190.86   16.66
  13  -3   4  187.91   13.78
  13   3   4  201.95   13.92
  13   3   4  220.26   16.26
  13  -3   4  170.64   16.31
  13  -3   4  202.55   16.44
  13  -3   5    1.95    4.32
  13  -3   5    3.30    3.98
  13  -3   5    8.31    3.49
  13   3   5   -1.05    4.75
  13   3   5    3.59    4.90
  13   3   5   -0.62    2.75
  13  -3   5    4.25    4.35
  13   3   5    3.41    3.59
  13  -3   5    3.18    3.08
  13   3   5    0.62    2.80
  13  -3   5   12.87    5.57
  13  -3   6   11.38    3.85
  13   3   6    6.22    5.12
  13  -3   6   13.80    4.72
  13   3   6    6.49    3.34
  13   3   6   11.87    5.63
  13  -3   6   14.03    5.40
  13  -3   6   14.11    5.56
  13   3   6   13.22    5.12
  13  -3   6   11.95    4.03
  13   3   6    7.72    3.75
  13  -3   6    9.25    4.78
  13  -3   7  208.81   15.93
  13   3   7  235.07   18.95
  13  -3   7  217.10   17.76
  13   3   7  227.30   20.28
  13  -3   7  232.75   15.96
  13   3   7  235.81   15.77
  13  -3   7  223.58   18.82
  13  -3   7  225.76   15.77
  13   3   7  217.63   15.32
  13   3   7  219.76   17.17
  13  -3   8   13.73    3.79
  13   3   8   11.98    6.07
  13  -3   8    9.12    5.39
  13   3   8   14.63    6.82
  13  -3   8   23.13    6.58
  13   3   8    6.47    4.58
  13  -3   8   19.60    4.76
  13  -3   8   17.04    4.37
  13   3   8    6.88    4.14
  13   3   8   17.47    4.66
  13   3   9  601.35   37.32
  13  -3   9  709.39   38.08
  13   3   9  706.15   41.32
  13  -3   9  734.57   36.01
  13   3   9  728.55   35.90
  13  -3   9  730.80   35.82
  13   3   9  699.96   35.50
  13  -3   9  713.53   39.32
  13   3   9  718.59   37.97
  13   3  10   90.89    9.66
  13   3  10   78.94   12.03
  13  -3  10   84.27    9.15
  13  -3  10   81.68    9.06
  13   3  10  106.25   10.09
  13   3  10   90.97   11.01
  13  -3  10   83.20   11.50
  13   3  11  136.32   15.22
  13  -3  11  133.42   11.90
  13   3  11  114.54   11.41
  13  -3  11  144.38   14.32
  13  -3  11  124.44   11.36
  13   3  11  150.57   12.23
  13   3  11  132.32   13.32
  13  -3  11  114.49   13.43
  13  -3  12  133.39   13.50
  13   3  12  133.85   14.74
  13  -3  12  106.54   10.57
  13   3  12  114.90   10.98
  13  -3  12  116.97   10.61
  13   3  12  128.94   11.23
  13   3  12  143.56   13.26
  13  -3  12  140.76   13.78
  13  -3  12  125.58   13.02
  13   3  13   37.96    6.31
  13   3  13   49.56    9.04
  13  -3  13   57.30    6.93
  13   3  13   60.32    7.19
  13  -3  13   45.87    8.18
  13   3  13   51.96    8.59
  13  -3  13   68.76    9.42
  13  -3  13   51.47    6.96
  13  -3  13   56.64    9.37
  13   3  14   27.09    6.70
  13  -3  14   23.98    6.04
  13   3  14   26.27    6.59
  13  -3  14   14.52    4.40
  13  -3  14   27.92    7.07
  13   3  14   20.32    4.61
  13   3  15  152.11   14.16
  13  -3  15  175.31   12.59
  13  -3  15  176.30   14.47
  13   3  15  170.46   12.68
  13  -3  15  191.58   15.58
  13  -3  16  186.81   15.01
  13  -3  16  197.19   13.64
  13   3  16  215.64   14.05
  13  -3  16  207.41   15.97
  13  -3  17   79.51    7.70
  13   3  17   78.26    7.55
  13  -3  17   82.48    9.29
  13  -3  17   78.86    8.61
  13  -3  18   15.42    4.25
  13  -3  18    5.25    3.66
  13  -3  18    5.33    2.95
  13  -3  19   25.04    4.67
  13  -3  19   23.24    4.06
  13   3  19   25.34    4.85
  13  -3  19   24.22    4.70
  13  -3  20    0.38    2.17
  13  -3  20    1.20    1.81
  13   3  20   -1.81    2.51
  13   3  21    2.35    2.00
  13  -3  21    2.72    1.60
  13   5 -29  442.25   26.24
  13  -5 -29  441.27   26.64
  13  -5 -28   50.36    8.77
  13   5 -28   43.30    5.98
  13   5 -27  278.50   16.84
  13  -5 -27  323.41   22.61
 -13  -5  27  287.68   14.72
 -13  -5  26    7.88    3.10
  13  -5 -26    9.06    7.00
  13  -5 -26   10.81    4.89
  13   5 -26    3.27    3.87
 -13   5  25   -2.85    3.20
 -13  -5  25   -0.58    2.91
  13  -5 -25    1.74    6.50
  13  -5 -25   -1.87    4.14
  13   5 -25   -1.81    3.60
 -13   5  24   55.33    6.83
 -13  -5  24   50.46    6.66
  13  -5 -24   50.96   13.17
  13  -5 -24   56.55    9.02
  13   5 -24   60.19    8.99
  13  -5 -23  231.62   18.26
  13   5 -23  184.19   16.86
  13  -5 -23  214.83   24.76
 -13   5  23  189.43   14.15
 -13  -5  23  210.80   14.71
 -13   5  22   23.90    4.80
 -13  -5  22   11.31    4.12
 -13  -5  22   23.44    5.67
  13  -5 -22   13.71    4.53
  13  -5 -22    9.45    9.97
  13   5 -22   14.20    4.96
  13  -5 -22   21.05    6.62
  13   5 -22   23.64    6.39
  13   5 -22   12.81    5.30
 -13  -5  21   59.97    8.47
  13  -5 -21   74.31    8.82
  13  -5 -21   76.00   16.19
  13   5 -21   95.95   10.08
  13  -5 -21   83.34   10.66
  13   5 -21   81.74   10.46
 -13   5  21   84.56    8.63
 -13  -5  21   83.15    8.71
  13   5 -21   76.70   10.46
 -13  -5  20    7.22    3.72
  13  -5 -20    5.14    3.22
  13  -5 -20    0.78    3.45
  13  -5 -20   -8.03   11.55
  13   5 -20    1.61    3.40
  13  -5 -20   -0.99    4.68
  13   5 -20    5.99    4.52
  13   5 -20   14.08    5.78
 -13   5  20    8.25    2.88
 -13  -5  20    8.51    3.41
 -13  -5  19  359.00   21.88
  13  -5 -19  321.86   19.65
  13  -5 -19  317.92   21.04
  13  -5 -19  362.45   23.43
  13   5 -19  328.63   22.87
  13   5 -19  319.46   21.26
 -13   5  19  333.72   20.14
 -13  -5  19  349.24   20.57
  13   5 -19  350.83   24.96
 -13  -5  18  509.33   28.18
  13   5 -18  456.42   28.67
  13  -5 -18  490.66   26.05
  13  -5 -18  490.84   28.98
  13  -5 -18  470.59   27.32
  13   5 -18  524.51   28.12
 -13   5  18  450.11   25.89
 -13  -5  18  482.89   26.43
  13   5 -18  431.87   30.41
  13  -5 -17  848.99   43.81
  13  -5 -17  882.42   45.45
  13   5 -17  973.17   47.91
  13  -5 -17  885.14   63.71
  13   5 -17  940.52   45.97
  13  -5 -17  913.17   47.12
  13   5 -17  937.85   50.73
  13  -5 -16   51.50    6.20
  13  -5 -16   50.13    7.49
  13  -5 -16   51.47    6.83
  13  -5 -16   54.85   16.61
  13   5 -16   58.68    7.10
  13   5 -16   36.24    6.82
  13   5 -16   39.84    8.02
  13  -5 -15  225.75   16.91
  13  -5 -15  263.74   15.75
  13   5 -15  236.46   17.41
  13  -5 -15  277.88   16.95
  13  -5 -15  230.77   29.50
  13   5 -15  260.37   16.44
  13   5 -15  211.53   19.03
  13  -5 -14  103.68    9.03
  13  -5 -14  104.84   10.30
  13   5 -14  105.22   10.51
  13  -5 -14  111.21    9.86
  13  -5 -14   88.97   19.15
  13   5 -14  121.43    9.77
  13   5 -14  119.45   13.06
  13  -5 -13   48.59    5.89
  13  -5 -13   60.70    7.07
  13  -5 -13   40.64   13.83
  13   5 -13   53.82    6.25
  13  -5 -13   49.22    6.73
  13   5 -13   58.68    9.08
  13  -5 -12    4.69    2.98
  13  -5 -12   -2.35   10.40
  13  -5 -12    6.69    3.23
  13   5 -12    5.26    2.74
  13  -5 -11  846.22   41.22
  13   5 -11  858.91   41.13
  13  -5 -11  804.17   40.30
  13  -5 -11  804.17   41.55
  13  -5 -11  728.16   52.91
  13   5 -11  837.15   40.30
  13  -5 -10    3.50    2.52
  13  -5 -10    3.15    3.00
  13   5 -10    1.10    2.33
  13  -5 -10    3.91    8.01
  13   5 -10    1.44    2.54
  13   5 -10    5.70    4.59
  13  -5  -9  417.79   23.90
  13   5  -9  402.20   23.41
  13  -5  -9  465.41   23.93
  13  -5  -9  404.71   33.22
  13   5  -9  459.56   23.12
  13   5  -9  395.10   26.23
  13   5  -8   37.07    5.28
  13  -5  -8   25.86    4.47
  13  -5  -8   29.43    5.30
  13  -5  -8   28.29    5.09
  13  -5  -8   33.40    9.55
  13   5  -8   31.27    6.35
  13  -5  -7   44.20    6.50
  13  -5  -7   41.78    5.78
  13   5  -7   40.40    5.62
  13  -5  -7   43.81    6.49
  13   5  -7   35.70    7.50
  13  -5  -7   37.84    5.56
  13  -5  -7   45.74    9.71
  13  -5  -7   33.09    5.14
  13   5  -7   47.23    7.65
  13  -5  -6   10.96    4.18
  13   5  -6    7.44    3.19
  13  -5  -6    6.66    3.27
  13  -5  -6    7.40    3.49
  13  -5  -6    2.91    3.39
  13   5  -6   18.75    6.31
  13   5  -6    7.70    4.22
  13  -5  -5 1317.32   63.37
  13  -5  -5 1264.80   62.94
  13  -5  -5 1274.84   63.06
  13  -5  -5 1288.94   61.40
  13   5  -5 1321.18   66.76
  13   5  -5 1340.08   64.16
  13  -5  -4  448.63   26.62
  13  -5  -4  425.68   26.48
  13   5  -4  426.94   29.01
  13  -5  -4  483.69   25.63
  13   5  -4  446.61   27.06
  13  -5  -3 1390.82   67.01
  13  -5  -3 1347.10   66.81
  13  -5  -3 1377.60   65.46
  13   5  -3 1307.42   69.57
  13   5  -3 1449.21   67.36
  13  -5  -2   38.70    7.09
  13  -5  -2   23.54    5.88
  13   5  -2   45.56    8.51
  13  -5  -2   35.61    7.31
  13   5  -2   43.89    7.01
  13  -5  -2   36.51    7.27
  13  -5  -1  120.18   12.06
  13   5  -1  131.74   13.92
  13  -5  -1  136.37   13.80
  13   5  -1  160.53   12.59
  13  -5  -1  117.47   12.93
  13  -5  -1  111.48   11.83
  13  -5   0    1.71    3.20
  13   5   0    6.87    4.82
  13  -5   0    3.35    4.44
  13   5   0    5.28    3.93
  13  -5   0    2.12    4.57
  13  -5   1  281.35   19.61
  13   5   1  275.99   23.48
  13   5   1  270.53   21.59
  13  -5   1  285.15   22.22
  13   5   1  295.77   18.79
  13  -5   1  295.83   21.86
  13  -5   1  266.44   19.41
  13  -5   2  339.26   22.04
  13  -5   2  346.52   24.58
  13   5   2  296.30   19.59
  13   5   2  347.40   26.83
  13   5   2  293.67   23.15
  13  -5   3  164.71   15.03
  13   5   3  179.20   18.72
  13   5   3  207.34   17.96
  13  -5   3  186.77   17.64
  13   5   3  183.59   13.66
  13   5   3  202.67   15.09
  13  -5   4    0.83    4.53
  13  -5   4   -3.70    5.29
  13   5   4    4.54    5.84
  13   5   4    5.98    4.32
  13  -5   4    2.49    2.82
  13  -5   4    7.48    6.37
  13   5   4    3.33    3.86
  13   5   4    6.08    3.11
  13   5   5  349.03   23.91
  13  -5   5  321.61   23.02
  13  -5   5  322.79   22.20
  13   5   5  369.26   28.68
  13   5   5  355.63   26.05
  13  -5   5  403.70   22.32
  13  -5   5  352.23   26.25
  13   5   5  378.46   21.51
  13   5   5  384.69   24.02
  13  -5   5  402.75   27.58
  13   5   6    8.16    3.44
  13   5   6    4.55    4.31
  13  -5   6    4.54    4.56
  13   5   6    1.57    6.26
  13   5   6    4.86    4.84
  13  -5   6   13.57    4.54
  13  -5   6    3.73    4.95
  13   5   6    5.49    4.05
  13  -5   6    1.31    5.04
  13  -5   6    1.08    4.77
  13   5   7 1039.34   58.86
  13  -5   7 1116.87   59.13
  13   5   7 1232.99   67.11
  13   5   7 1219.70   63.31
  13  -5   7 1296.12   58.76
  13   5   7 1228.63   57.80
  13  -5   7 1150.50   62.89
  13   5   7 1319.46   61.45
  13  -5   7 1212.27   64.29
  13  -5   7 1216.35   62.34
  13  -5   8   33.24    5.97
  13   5   8    8.45    4.40
  13   5   8    8.04    6.64
  13   5   8   11.84    6.32
  13   5   8   19.08    4.70
  13  -5   8   23.78    7.22
  13   5   8   14.34    5.36
  13  -5   8   25.52    7.44
  13  -5   8    8.61    5.36
  13   5   9  967.10   54.95
  13  -5   9  892.12   45.80
  13  -5   9  890.47   49.88
  13   5   9  982.79   49.05
  13  -5   9  928.30   51.12
  13  -5   9  831.61   48.41
  13  -5  10   42.11    6.34
  13   5  10   36.04    9.83
  13  -5  10   42.51    8.39
  13   5  10   37.51    7.56
  13  -5  10   43.01    8.79
  13  -5  10   36.19    8.04
  13   5  11  244.93   21.28
  13  -5  11  165.96   13.98
  13  -5  11  221.64   17.63
  13   5  11  218.70   16.92
  13  -5  11  217.45   18.30
  13  -5  11  208.23   17.08
  13   5  12  135.22   15.58
  13  -5  12  122.31   12.66
  13   5  12  110.64   11.86
  13  -5  12  127.44   13.36
  13   5  13    2.57    5.27
  13  -5  13    0.87    4.13
  13   5  13    2.65    4.00
  13  -5  13    1.99    4.30
  13   5  14    6.82    5.27
  13  -5  14    9.37    4.20
  13   5  14    4.97    4.00
  13  -5  14    3.64    4.22
  13   5  15    2.92    4.50
  13  -5  15    3.38    3.33
  13   5  15    6.82    4.14
  13  -5  15   -0.81    3.77
  13   5  16   54.35    7.88
  13  -5  16   69.73    7.31
  13   5  16   53.06    7.25
  13  -5  16   70.22    8.17
  13  -5  17    3.79    2.67
  13   5  17    1.18    2.97
  13  -5  17   -0.60    3.10
  13   5  18   24.14    4.54
  13  -5  18   31.81    4.75
  13  -5  19   67.89    6.41
  13   5  19   60.80    5.98
  13  -5  20    4.99    1.93
  13   5  20    3.09    1.87
  13  -7 -28   51.72    7.20
  13   7 -27   34.51    5.73
  13  -7 -27   40.97    7.62
  13   7 -26   64.70    9.05
  13  -7 -26   62.37   10.20
  13  -7 -25   36.94    6.27
  13   7 -25   35.84    7.95
  13  -7 -25   38.44    9.45
  13   7 -24  229.84   20.93
  13  -7 -24  258.69   23.97
  13   7 -23  215.03   21.67
  13  -7 -23  253.44   25.19
  13  -7 -22  414.34   23.70
  13   7 -22  427.56   33.32
  13  -7 -22  501.09   38.09
  13  -7 -21   89.79    8.95
  13   7 -21  129.27   17.89
  13  -7 -21  123.02   19.52
  13  -7 -20    5.17    3.31
  13   7 -20   17.16   10.56
  13  -7 -20   -2.64   10.82
  13  -7 -19   11.87    4.20
  13   7 -19   24.63    9.91
  13  -7 -19    8.35    3.98
  13   7 -19   15.86    6.01
 -13  -7  18   10.64    4.16
  13  -7 -18    5.30    3.34
  13   7 -18   11.29    9.51
  13   7 -18    9.01    3.79
  13   7 -18    1.18    4.69
 -13  -7  17    5.27    3.26
  13  -7 -17    4.61    3.43
  13   7 -17    4.42    8.27
  13  -7 -17   -6.22   12.38
  13   7 -17    4.69    3.04
  13   7 -17   10.87    5.83
 -13  -7  16  699.27   37.54
  13  -7 -16  716.11   36.84
  13   7 -16  781.96   50.59
  13  -7 -16  707.37   55.89
  13   7 -16  693.76   36.45
  13   7 -16  693.10   41.52
 -13  -7  15   49.21    6.81
  13  -7 -15   35.06    6.00
  13   7 -15   53.77   12.74
  13  -7 -15   44.03    6.77
  13  -7 -15   21.68   14.14
  13   7 -15   48.60    6.38
  13   7 -15   45.57    9.01
 -13  -7  14    2.81    3.03
  13  -7 -14    5.18    3.37
  13   7 -14    1.86    6.97
  13  -7 -14    1.49    3.14
  13  -7 -14   -2.99   10.41
  13   7 -14   -1.18    2.47
  13   7 -14    6.14    5.44
 -13  -7  13   64.74    7.68
  13  -7 -13   60.29    7.30
  13   7 -13   52.41   12.00
  13  -7 -13   70.83    8.21
  13  -7 -13   59.37   16.38
  13   7 -13   68.05    7.07
  13   7 -13   69.46   10.68
  13  -7 -12  245.02   16.38
  13   7 -12  248.90   23.29
  13  -7 -12  240.86   16.90
  13  -7 -12  245.63   29.00
  13   7 -12  237.79   15.30
  13   7 -12  261.46   20.60
  13  -7 -11  283.29   18.38
  13   7 -11  296.84   25.47
  13  -7 -11  297.36   19.21
  13  -7 -11  266.16   29.94
  13   7 -11  306.16   22.67
  13  -7 -10  767.70   40.14
  13  -7 -10  763.74   39.61
  13   7 -10  741.60   46.54
  13  -7 -10  833.37   53.93
  13  -7  -9  419.47   24.61
  13  -7  -9  448.66   25.55
  13   7  -9  371.83   29.99
  13  -7  -9  436.78   25.18
  13  -7  -9  396.87   34.20
  13  -7  -8  185.53   14.16
  13  -7  -8  203.30   15.16
  13  -7  -8  185.70   14.33
  13  -7  -8  164.38   21.14
  13   7  -8  188.42   16.96
  13  -7  -7    1.45    3.20
  13  -7  -7    0.80    3.62
  13  -7  -7   -1.70    7.71
  13   7  -7   -2.24    4.46
  13  -7  -6  235.68   16.74
  13  -7  -6  268.28   18.36
  13   7  -6  230.67   19.16
  13  -7  -6  226.96   22.18
  13  -7  -5   60.05    9.02
  13  -7  -5   67.15    8.23
  13  -7  -5   61.49    8.52
  13   7  -5   57.14   10.64
  13  -7  -5   63.59   11.40
  13   7  -5   71.87   10.20
  13  -7  -4   46.61    7.68
  13  -7  -4   34.40    6.42
  13  -7  -4   37.27    7.12
  13   7  -4   39.99    9.64
  13  -7  -4   47.42    9.09
  13   7  -4   45.01    8.19
  13  -7  -3   89.07   10.27
  13  -7  -3   78.47   10.45
  13   7  -3   93.03   13.47
  13   7  -3   90.44   11.48
  13  -7  -2   66.25    9.29
  13  -7  -2   69.28    8.85
  13  -7  -2   75.41   10.73
  13   7  -2   85.12   12.81
  13   7  -2   68.03    9.96
  13  -7  -1   19.24    5.72
  13  -7  -1   23.49    6.04
  13   7  -1   17.52    7.80
  13   7  -1   18.43    7.00
  13   7  -1   19.15    6.05
  13  -7   0  815.65   45.77
  13   7   0  943.95   54.87
  13   7   0  883.56   51.99
  13   7   0  951.19   48.14
  13  -7   0  810.48   45.51
  13  -7   1  397.21   25.47
  13   7   1  374.44   29.30
  13   7   1  437.91   26.42
  13  -7   1  326.86   23.31
  13   7   2 1055.33   59.50
  13   7   2 1034.27   54.12
  13   7   3  201.15   19.88
  13   7   3  174.93   15.37
  13   7   4 1159.25   64.27
  13   7   4 1152.03   57.99
  13   7   5  104.95   14.54
  13   7   6  302.51   25.05
  13   7   6  289.64   26.85
  13   7   6  288.86   19.38
  13   7   7   76.51   13.87
  13   7   7   96.13   13.24
  13   7   7   85.07    9.35
  13   7   8   12.43    8.44
  13   7   8   20.89    7.41
  13   7   8   20.59    5.16
  13   7   9    3.41    7.19
  13   7   9   18.17    7.10
  13   7   9   10.56    4.21
  13   7  10   17.51    6.23
  13   7  10   27.31    9.47
  13   7  10   18.97    4.85
  13   7  11    2.96    6.07
  13   7  11    2.78    3.55
  13   7  12   93.55   12.72
  13   7  12   77.89    8.35
  13   7  13  283.55   21.35
  13   7  13  236.08   16.03
  13   7  14  887.99   46.71
  13   7  14  835.79   41.64
  13   7  15  206.41   15.89
  13   7  15  199.06   12.91
  13  -7  16  281.64   16.30
  13   7  16  262.33   17.12
  13   7  16  237.80   14.48
  13  -7  17    4.56    2.48
  13   7  17    6.47    2.12
  13  -7  18   73.43    5.84
  13  -9 -25   14.47    5.13
  13  -9 -24    8.31    3.45
  13  -9 -24    9.55    5.89
  13  -9 -23   41.97    6.26
  13  -9 -23   27.76    8.86
  13   9 -23   27.79    6.24
  13   9 -22   13.28    6.24
  13  -9 -22    6.34    7.03
  13   9 -21   25.89    8.09
  13  -9 -21   29.65    4.94
  13  -9 -21   22.26    9.55
  13  -9 -20   90.28    8.71
  13   9 -20   56.85   12.11
  13  -9 -19    0.68    3.13
  13   9 -19   -3.72    7.40
  13  -9 -18 1115.71   54.59
  13   9 -18 1102.31   66.50
  13  -9 -17    6.52    3.96
  13   9 -17    4.37    9.44
  13  -9 -17   -5.61   11.50
  13  -9 -16 1420.81   67.40
  13   9 -16 1471.53   82.35
  13  -9 -16 1258.19   84.77
  13  -9 -15   48.80    7.36
  13   9 -15   37.94   12.13
  13  -9 -15   23.89   13.33
  13  -9 -14  630.23   33.84
  13   9 -14  656.47   45.91
  13  -9 -14  524.13   48.14
  13  -9 -13  125.16   11.19
  13   9 -13  157.41   19.95
  13  -9 -12   10.61    4.41
  13   9 -12   14.06    9.51
  13  -9 -12   15.62    4.51
  13  -9 -12    2.78   10.42
  13   9 -12    7.43    5.09
  13  -9 -11    0.77    3.33
  13   9 -11   -3.86    6.97
  13  -9 -11   -5.27   11.66
  13   9 -11    1.25    4.81
  13  -9 -10   47.22    7.32
  13   9 -10   55.96   12.29
  13  -9 -10   56.75   15.42
  13   9 -10   61.50    9.88
  13  -9  -9  345.02   22.18
  13  -9  -9  353.36   22.59
  13   9  -9  310.24   28.33
  13  -9  -9  354.79   32.64
  13  -9  -8   74.56    9.23
  13  -9  -8   83.04    9.89
  13   9  -8   71.15   12.79
  13  -9  -8   69.58   14.88
  13  -9  -7   28.83    6.16
  13   9  -7   31.60    9.67
  13   9  -7   25.02    7.26
  13  -9  -6 1530.86   72.02
  13   9  -6 1474.82   80.43
  13  -9  -6 1374.33   70.42
  13   9  -6 1381.14   78.43
  13  -9  -6 1539.66   80.09
  13   9  -6 1429.19   73.98
  13  -9  -5   49.18    8.16
  13   9  -5   24.24   10.10
  13  -9  -5   22.46    6.26
  13  -9  -5   20.51    8.97
  13   9  -5   39.43    8.43
  13  -9  -4 2483.15  113.41
  13   9  -4 2565.01  123.45
  13  -9  -4 2332.40  113.01
  13  -9  -4 2372.58  117.57
  13   9  -4 2447.44  115.91
  13  -9  -3  162.30   14.46
  13   9  -3  152.72   19.12
  13  -9  -3  147.00   14.58
  13  -9  -3  132.01   15.15
  13   9  -3  163.63   16.02
  13   9  -2  891.28   52.62
  13   9  -2  832.65   45.63
  13  -9  -2  814.77   42.86
  13  -9  -1   23.03    5.75
  13   9  -1   26.69    9.80
  13   9  -1   40.26   10.87
  13   9  -1   25.44    6.70
  13  -9   0   -0.79    3.56
  13   9   0   11.48    8.26
  13   9   0    1.74    6.50
  13   9   0   -1.12    4.31
  13   9   1   99.47   15.77
  13   9   1  111.73   15.49
  13   9   1   88.71   11.39
  13   9   2  317.34   28.38
  13   9   2  310.80   26.71
  13   9   3   31.98   10.84
  13   9   3   36.32   10.18
  13   9   4   35.10   10.79
  13   9   4   33.62    9.51
  13  -9   5    3.49    3.95
  13   9   5   10.79    7.36
  13   9   5   -1.54    6.97
  13  -9   6  158.79   14.17
  13   9   6  166.27   19.36
  13   9   6  188.22   18.60
  13  -9   7  431.34   26.27
  13   9   7  415.20   32.05
  13   9   7  449.38   30.93
  13  -9   8  578.93   32.96
  13   9   8  637.60   37.74
  13  -9   9   39.73    6.56
  13   9   9   38.30    8.41
  13  -9  10  250.40   16.62
  13  -9  11   55.61    6.79
  13  -9  12    5.20    2.67
  13   9  12    5.52    4.87
  13  -9  13    0.77    2.33
  13   9  13    3.75    3.83
  13  -9  14    5.55    2.05
  13   9  14    7.54    3.37
  13 -11 -21  455.13   24.07
  13 -11 -21  408.79   25.71
  13 -11 -20   86.91    8.93
  13 -11 -19   14.64    4.92
  13  11 -19   10.70    4.16
  13 -11 -18    8.84    4.67
  13  11 -18    8.07    5.34
  13 -11 -17   61.46    7.36
  13  11 -17   55.31   10.54
  13 -11 -17   57.47   12.12
  13 -11 -16   10.71    4.11
  13  11 -16   13.87    6.83
  13 -11 -16    3.70    7.80
  13 -11 -15   67.67    8.92
  13 -11 -15   57.58    7.64
  13  11 -15   64.32   12.48
  13 -11 -15   44.84   13.00
  13 -11 -14    3.55    4.37
  13 -11 -14    6.40    3.63
  13  11 -14    1.53    6.43
  13  11 -14   -3.75    7.89
  13 -11 -14    2.20    9.25
  13 -11 -13  422.09   24.88
  13 -11 -13  402.24   23.18
  13  11 -13  339.90   30.80
  13 -11 -13  372.16   34.43
  13 -11 -12  378.47   23.10
  13 -11 -12  331.29   21.30
  13  11 -12  385.66   31.41
  13 -11 -12  283.38   30.56
  13  11 -12  292.69   28.22
  13 -11 -11 1530.83   71.48
  13 -11 -11 1447.61   70.05
  13  11 -11 1411.74   80.24
  13 -11 -11 1287.11   83.13
  13  11 -11 1575.78   82.35
  13 -11 -10  564.58   31.94
  13  11 -10  597.97   40.89
  13  11 -10  536.35   39.35
  13 -11 -10  496.93   42.30
  13 -11  -9  641.08   34.80
  13  11  -9  625.48   43.09
  13  11  -9  603.07   42.08
  13 -11  -9  573.65   44.85
  13 -11  -8  191.05   15.23
  13  11  -8  195.07   21.72
  13  11  -8  208.24   21.51
  13 -11  -8  175.40   22.34
  13 -11  -7  169.54   14.14
  13  11  -7  182.03   20.43
  13  11  -7  145.64   18.24
  13 -11  -7  168.00   20.52
  13 -11  -6   -2.37    3.58
  13  11  -6   -1.74    7.90
  13  11  -6    4.93    5.93
  13 -11  -6   -1.73    7.09
  13  11  -5   78.39   13.15
  13  11  -5   65.72   12.32
  13 -11  -5   66.98   12.37
  13 -11  -5   86.78    9.29
  13  11  -4   98.26   14.71
  13  11  -4   78.08   12.82
  13 -11  -4   66.75   11.13
  13 -11  -4   90.13    9.32
  13 -11  -3    0.62    1.59
  13  11  -3   27.66    9.29
  13 -11  -3   12.26    5.04
  13  11  -3   31.97    8.94
  13  11  -2    3.18    6.87
  13  11  -2    5.96    6.43
  13  11  -1   80.62   12.89
  13  11   0  167.22   18.03
  13  11   1  403.10   29.68
  13  11   2  550.70   36.15
  13  11   2  546.31   35.17
  13  11   3  582.98   38.54
  13  11   3  675.42   39.07
  13  11   4  148.15   15.92
  13  11   4  140.18   14.69
  13  11   5    4.60    4.84
  13  11   5   -1.06    4.59
  13  11   6    5.21    5.32
  13  11   6    1.90    4.21
  13  11   7   10.16    5.31
  13  11   7   18.89    5.47
  13  11   8   17.54    5.22
  13  11   9  222.73   15.55
  13  11  10    2.61    2.77
  13  13 -10    7.19    4.35
  13  13  -9   97.78   11.45
  13  13  -8   42.38    7.94
  13  13  -7  205.12   17.31
  13  13  -6    8.84    5.12
  13  13  -5  694.25   38.86
  13  13  -4  125.43   12.37
  13  13  -3  825.41   43.52
  13  13  -2    3.94    3.80
  13  13  -1  161.74   13.15
  13  13   0    6.59    3.49
  13  13   1   18.70    4.26
  14   0 -33    1.56    2.19
  14   0 -32  434.58   24.01
 -14   0  31    0.44    2.30
  14   0 -31    0.70    3.47
  14   0 -30  564.86   32.47
 -14   0  30  567.04   29.51
 -14   0  29   -1.22    2.95
 -14   0  28  820.30   41.89
 -14   0  27    2.21    3.70
 -14   0  26    2.33    3.97
 -14   0  25   -1.59    3.92
  14   0 -25    7.26    8.22
 -14   0  24  129.17   11.52
  14   0 -24  135.97   18.22
  14   0 -24  118.60   11.80
 -14   0  24  125.78   11.74
 -14   0  23   -2.18    2.98
  14   0 -23    5.62    8.09
  14   0 -23    0.84    3.34
 -14   0  23   -0.79    3.97
 -14   0  22  294.87   19.37
  14   0 -22  274.91   26.37
  14   0 -22  317.20   20.57
 -14   0  22  303.07   19.98
  14   0 -21    1.55    3.25
  14   0 -20    0.73    3.29
  14   0 -19   -0.68    3.07
  14   0 -19   -1.23    4.89
  14   0 -18 3002.60  142.43
  14   0 -18 2906.60  131.02
  14   0 -17   -1.61    6.20
  14   0 -17    1.17    1.85
  14   0 -17    1.78    2.49
  14   0 -16  855.13   40.71
  14   0 -16  893.09   52.15
  14   0 -16  876.27   42.68
  14   0 -15   -1.46    6.14
  14   0 -15    3.72    2.00
  14   0 -15    0.53    2.72
  14   0 -15   -5.40    5.21
  14   0 -14  330.41   26.77
  14   0 -14  365.49   19.27
  14   0 -14  357.29   20.57
  14   0 -13    5.02    5.81
  14   0 -13    1.09    1.79
  14   0 -13    1.99    2.45
  14   0 -13    0.75    2.98
  14   0 -13    0.97    4.06
  14   0 -12  757.85   36.68
  14   0 -12  828.89   41.37
  14   0 -11   -0.83    4.18
  14   0 -10   16.75    4.82
  14   0  -9   -0.69    3.37
  14   0  -8  487.94   26.24
  14   0  -8  483.10   26.67
  14   0  -7    5.60    2.71
  14   0  -7    5.40    3.22
  14   0  -6 2159.16   93.01
  14   0  -6 1949.02   91.26
  14   0  -5    8.97    3.54
  14   0  -5   11.78    3.17
  14   0  -4 5356.75  235.04
  14   0  -4 5397.78  231.74
  14   0  -3    9.68    3.99
  14   0  -3    4.76    1.87
  14   0  -2  900.54   40.50
  14   0  -1    4.74    3.18
  14   0   0 1477.43   72.27
  14   0   0 1595.17   71.45
  14   0   1    0.56    2.96
  14   0   1   -0.79    3.41
  14   0   1    1.65    3.81
  14   0   1   -0.69    2.76
  14   0   1    3.04    3.36
  14   0   2   18.72    4.91
  14   0   2   19.62    5.33
  14   0   2   22.36    4.40
  14   0   2   19.55    5.56
  14   0   2   15.35    4.15
  14   0   3   -0.88    3.88
  14   0   3    1.86    2.60
  14   0   3   -0.87    3.76
  14   0   3    0.62    3.11
  14   0   4  310.27   21.89
  14   0   4  328.76   22.71
  14   0   4  332.62   20.64
  14   0   4  370.79   21.22
  14   0   4  376.87   23.75
  14   0   5    9.63    3.58
  14   0   5    5.22    4.21
  14   0   5    6.87    4.13
  14   0   5    0.97    4.28
  14   0   5    4.78    2.89
  14   0   6  630.57   37.16
  14   0   6  686.15   39.59
  14   0   6  746.19   37.59
  14   0   6  731.67   37.42
  14   0   6  733.10   40.11
  14   0   7   24.74    4.21
  14   0   7    4.15    5.25
  14   0   7   18.00    4.95
  14   0   7    9.62    4.99
  14   0   8 1533.53   63.24
  14   0   8 1473.02   62.81
  14   0   9    8.30    5.51
  14   0   9   12.64    4.89
  14   0   9   11.60    4.86
  14   0  10 1142.59   62.82
  14   0  10 1281.35   62.15
  14   0  10 1264.61   62.11
  14   0  10 1370.64   64.71
  14   0  11   -2.01    4.84
  14   0  11    3.18    3.92
  14   0  11    0.78    3.82
  14   0  12    6.87    4.77
  14   0  12    9.42    4.05
  14   0  12    5.35    3.50
  14   0  13    0.96    4.23
  14   0  13    0.74    3.65
  14   0  13    1.53    3.21
  14   0  14   89.94    9.90
  14   0  14   90.31    9.34
  14   0  14   96.58   10.77
  14   0  15    0.71    3.14
  14   0  15    1.74    4.11
  14   0  15    2.01    3.23
  14   0  16    6.76    3.36
  14   0  16    5.61    4.65
  14   0  16    3.09    2.93
  14   0  17    1.50    2.42
  14   0  17    5.06    3.95
  14   0  17    0.56    3.14
  14   0  18  101.96    9.49
  14   0  18  102.03    8.64
  14   0  19    3.63    3.01
  14   0  19   -0.54    2.89
  14   0  20    1.21    2.07
  14   0  20    5.50    2.68
  14   0  21    0.55    1.63
  14   0  21    3.29    1.96
  14  -2 -32   81.30    7.32
  14   2 -32   77.18    7.37
  14  -2 -31    5.49    3.39
  14   2 -31    5.61    3.77
  14  -2 -30   68.96    8.69
  14   2 -30   73.81    8.74
 -14   2  30   68.48    7.13
 -14  -2  30   72.18    7.05
  14  -2 -29   78.33    9.79
  14   2 -29   70.07    9.32
 -14   2  29   66.65    7.26
 -14  -2  29   65.77    7.11
 -14   2  28    9.19    3.96
 -14  -2  28    3.80    3.83
  14  -2 -28    2.74    5.76
 -14   2  27    9.29    4.38
 -14  -2  27   10.38    4.25
  14  -2 -27    9.57    7.55
  14  -2 -26  168.90   19.91
 -14   2  26  181.28   13.96
 -14  -2  26  166.56   13.43
  14  -2 -25  349.02   29.72
 -14   2  25  329.85   20.96
 -14  -2  25  290.58   20.17
 -14  -2  24  820.21   45.47
  14  -2 -24  996.34   59.24
  14   2 -24  918.97   47.05
 -14   2  24  932.88   46.70
 -14  -2  24  904.04   46.21
 -14  -2  23  263.15   18.88
  14  -2 -23  346.32   30.50
  14   2 -23  285.11   19.84
 -14   2  23  277.53   19.22
 -14  -2  23  300.67   19.39
  14   2 -23  285.57   21.78
 -14  -2  22 1368.44   67.09
  14  -2 -22 1465.75   81.40
  14   2 -22 1359.32   67.62
 -14   2  22 1434.95   67.54
 -14  -2  22 1423.08   67.31
  14   2 -22 1347.54   70.48
 -14   2  21  383.88   22.33
  14  -2 -21  382.94   22.43
  14   2 -21  391.20   24.00
  14   2 -21  385.01   26.64
  14  -2 -20  135.83   10.75
  14   2 -20  132.72   11.58
  14   2 -20  108.20   13.01
  14  -2 -19   68.84    7.43
  14  -2 -19   94.09   15.95
  14   2 -19   76.73    8.28
  14   2 -19   75.25   10.71
  14   2 -18    3.22    6.21
  14  -2 -18    2.84    2.64
  14  -2 -18    2.03    7.60
  14   2 -18    3.96    3.06
  14   2 -18    5.72    4.69
  14  -2 -17  215.10   16.34
  14   2 -17  217.51   21.00
  14  -2 -17  224.85   23.79
  14   2 -17  191.46   13.88
  14   2 -17  193.00   17.57
  14  -2 -17  198.80   13.52
  14   2 -16  114.77   14.60
  14  -2 -16  124.97    9.60
  14  -2 -16  118.31   17.30
  14   2 -16  109.52    9.54
  14   2 -15   20.09    6.53
  14  -2 -15   25.32    4.23
  14  -2 -15   25.79    9.94
  14   2 -15   18.39    4.20
  14  -2 -14  216.87   15.98
  14   2 -14  223.12   16.17
  14   2 -14  167.88   17.32
  14  -2 -14  231.61   13.85
  14  -2 -14  206.99   22.16
  14  -2 -14  213.57   15.73
  14   2 -14  223.49   17.56
  14  -2 -13  321.94   20.15
  14   2 -13  271.59   21.52
  14  -2 -13  289.66   19.48
  14   2 -13  267.21   19.09
  14  -2 -13  327.99   17.69
  14  -2 -13  322.55   27.41
  14   2 -13  320.83   21.80
  14  -2 -12  812.74   42.73
  14  -2 -12  776.75   42.19
  14   2 -12  844.69   42.75
  14  -2 -12  847.63   40.10
  14   2 -12  872.01   44.68
  14  -2 -11 1996.17   93.49
  14  -2 -11 1982.00   92.92
  14   2 -11 1990.57   93.08
  14  -2 -11 2064.18   90.68
  14   2 -11 2074.76   94.94
  14  -2 -10 1867.03   88.73
  14   2 -10 2013.19   89.26
  14   2 -10 2164.66   93.37
  14  -2  -9 1136.20   53.03
  14   2  -9 1203.51   57.38
  14  -2  -8  305.70   18.82
  14   2  -8  320.38   19.14
  14   2  -8  342.29   20.64
  14  -2  -7  514.15   27.66
  14   2  -7  518.61   27.98
  14   2  -7  528.26   28.99
  14  -2  -6  162.86   12.28
  14   2  -6  184.67   12.90
  14   2  -6  185.08   13.26
  14  -2  -5  255.12   16.50
  14   2  -5  234.46   16.29
  14   2  -5  291.62   17.18
  14  -2  -4  228.57   15.21
  14   2  -4  197.21   14.78
  14   2  -4  238.83   14.92
  14   2  -3   40.89    6.06
  14  -2  -3   47.01    6.40
  14   2  -3   51.34    6.04
  14  -2  -2   29.66    6.09
  14  -2  -2   24.00    5.45
  14   2  -2   24.98    4.07
  14  -2  -1  835.77   42.55
  14   2  -1  693.44   41.36
  14  -2  -1  775.21   40.80
  14   2  -1  802.26   41.17
  14  -2  -1  857.47   42.93
  14   2  -1  843.28   38.57
  14   2   0  594.69   35.72
  14  -2   0  619.94   34.95
  14   2   0  647.23   35.48
  14  -2   0  694.43   34.18
  14   2   0  725.34   34.45
  14   2   0  679.53   32.08
  14  -2   0  689.81   36.63
  14   2   1 1227.93   67.87
  14  -2   1 1435.36   69.16
  14   2   1 1385.58   68.06
  14  -2   1 1541.69   66.97
  14   2   1 1414.83   66.70
  14   2   1 1432.39   68.02
  14  -2   1 1538.07   70.13
  14   2   2  353.45   22.29
  14   2   2  344.39   22.32
  14  -2   2  311.19   22.17
  14  -2   2  359.23   20.88
  14   2   2  384.34   21.22
  14   2   2  392.21   23.05
  14  -2   2  354.95   21.03
  14   2   3  588.06   33.90
  14  -2   3  641.38   35.21
  14   2   3  546.94   35.61
  14  -2   3  678.53   33.35
  14   2   3  624.46   32.84
  14  -2   3  637.12   36.38
  14   2   3  598.43   34.48
  14  -2   3  671.67   33.38
  14   2   3  640.93   33.03
  14   2   4  114.92   10.93
  14  -2   4   96.10   10.64
  14   2   4  112.43   12.25
  14  -2   4   98.74   11.06
  14   2   4   87.77   11.43
  14  -2   4   87.86    9.07
  14   2   4  108.85    9.69
  14  -2   4  113.61   12.46
  14  -2   4  108.55    9.85
  14   2   4  105.52    9.64
  14   2   4  110.80   11.33
  14   2   5   10.73    3.56
  14   2   5    6.47    3.76
  14  -2   5   10.60    4.83
  14   2   5   10.99    4.87
  14   2   5    1.06    5.03
  14  -2   5    5.94    4.79
  14  -2   5    6.81    3.50
  14  -2   5    2.15    4.53
  14   2   5    3.55    3.55
  14  -2   5    4.74    3.22
  14   2   5   10.00    3.98
  14   2   6   27.21    5.85
  14  -2   6   18.41    5.01
  14  -2   6   27.58    5.99
  14   2   6   25.84    5.43
  14   2   6   26.18    7.31
  14  -2   6   19.26    6.14
  14   2   6   22.74    6.50
  14  -2   6   17.71    6.06
  14   2   6   16.44    5.41
  14  -2   6   25.25    5.49
  14   2   6   20.12    5.18
  14  -2   7    7.26    3.67
  14   2   7    2.50    3.44
  14   2   7   12.34    3.99
  14  -2   7   15.34    4.07
  14   2   7   11.11    6.08
  14  -2   7    1.03    4.79
  14   2   7   11.65    5.97
  14  -2   7    5.60    4.86
  14   2   7    7.44    4.33
  14  -2   7    7.91    3.83
  14   2   7    9.33    3.76
  14  -2   8   36.28    6.02
  14   2   8   21.66    4.88
  14   2   8   27.35    5.95
  14  -2   8   43.55    5.52
  14   2   8   27.63    6.86
  14  -2   8   26.67    6.82
  14   2   8   26.90    7.33
  14  -2   8   23.57    7.21
  14   2   8   24.45    6.34
  14  -2   8   29.16    5.63
  14   2   8   27.30    5.78
  14   2   9    9.89    4.02
  14   2   9   20.30    5.37
  14   2   9   26.07    6.91
  14  -2   9   14.12    5.56
  14   2   9   12.62    5.80
  14  -2   9   16.67    6.30
  14   2   9   21.78    5.97
  14  -2   9   10.24    4.30
  14   2   9    9.01    4.41
  14  -2   9   18.60    4.71
  14   2  10  148.37   13.49
  14  -2  10  131.84   12.68
  14   2  10  135.52   12.88
  14  -2  10  131.45   12.77
  14   2  10  141.86   12.98
  14  -2  10  132.83   14.63
  14   2  10  132.86   13.82
  14   2  11   43.52    7.14
  14   2  11   47.74    7.22
  14  -2  11   59.41    9.23
  14   2  11   36.15    7.77
  14  -2  11   52.17    7.45
  14   2  11   44.95    7.46
  14  -2  11   54.08    7.56
  14  -2  12   22.78    5.15
  14   2  12   33.00    5.96
  14  -2  12   15.30    5.91
  14   2  12   23.64    6.20
  14  -2  12   20.90    4.90
  14   2  12   25.65    5.48
  14  -2  13   27.22    6.90
  14  -2  13   32.25    5.71
  14   2  13   35.34    5.62
  14  -2  14  205.68   14.98
  14  -2  14  237.69   17.68
  14   2  14  235.71   15.86
  14  -2  15   35.45    6.63
  14  -2  15   20.52    6.09
  14  -2  15   30.09    5.08
  14   2  15   29.92    5.00
  14  -2  16   44.13    6.90
  14  -2  16   42.28    7.01
  14  -2  16   33.85    5.49
  14   2  16   44.25    6.12
  14  -2  17   17.24    4.57
  14  -2  17   15.99    4.36
  14   2  17    9.84    4.50
  14  -2  17   15.06    4.64
  14  -2  17   17.49    4.03
  14   2  17   15.11    3.85
  14  -2  18  315.08   19.08
  14  -2  18  317.03   19.38
  14   2  18  349.60   20.33
  14  -2  18  360.91   20.42
  14  -2  19    0.38    2.02
  14  -2  19   -0.44    2.39
  14   2  19   -1.01    2.76
  14  -2  19   -1.97    2.94
  14   2  20   63.62    5.92
  14  -2  20   51.93    4.99
  14  -2  20   61.23    5.69
  14   2  21   24.30    3.16
  14   2  21   19.64    2.85
  14  -4 -30    2.29    2.38
  14   4 -30    0.51    2.82
  14  -4 -29  988.72   49.18
  14   4 -29 1029.90   49.81
  14  -4 -29  980.21   52.23
 -14  -4  29 1018.93   47.42
 -14   4  28    9.28    3.67
 -14  -4  28   18.82    4.06
  14  -4 -28   10.65    5.96
  14  -4 -28   10.65    4.50
  14   4 -28   18.51    5.55
  14  -4 -27  254.30   19.32
  14   4 -27  281.06   19.65
  14  -4 -27  299.16   24.06
 -14   4  27  273.64   17.31
 -14  -4  27  277.43   17.30
 -14   4  26    1.92    3.03
 -14  -4  26    1.27    3.31
  14  -4 -26    8.18    7.57
  14  -4 -26    8.97    4.81
  14   4 -26    6.73    4.74
  14  -4 -25  106.37   12.89
  14   4 -25  134.58   13.36
  14  -4 -25  101.54   16.80
 -14   4  25  122.77   10.84
 -14  -4  25  118.79   10.62
 -14   4  24   23.42    5.34
 -14  -4  24   15.56    4.96
  14  -4 -24   32.56   10.62
  14  -4 -24   19.00    6.54
  14   4 -24   31.04    7.36
  14  -4 -23  136.15   14.51
  14  -4 -23  160.23   20.78
 -14   4  23  132.92   11.75
 -14  -4  23  138.91   11.90
  14   4 -23  121.35   13.40
  14  -4 -22   14.59    4.59
  14  -4 -22    6.97    8.40
  14  -4 -22    6.63    5.66
 -14   4  22   12.27    4.14
  14   4 -22    4.52    4.78
 -14  -4  22   13.68    4.53
  14  -4 -21  151.22   13.15
  14  -4 -21  152.16   15.13
 -14   4  21  171.61   13.32
 -14  -4  21  175.20   13.28
  14   4 -21  160.85   15.86
  14  -4 -20    0.74    3.04
  14   4 -20    0.82    3.86
  14  -4 -20    1.01    4.03
 -14   4  20    4.17    3.61
 -14  -4  20    3.46    3.72
  14   4 -20    4.82    4.65
  14  -4 -19  933.59   47.22
  14   4 -19  951.35   47.93
  14   4 -19  960.21   50.10
  14   4 -19  911.92   51.45
  14  -4 -19  924.63   49.46
  14  -4 -18   33.84    5.87
  14  -4 -18   55.54   14.73
  14   4 -18   39.21    6.49
  14  -4 -18   44.64    7.48
  14   4 -18   63.50    8.63
  14   4 -18   49.13    9.43
  14  -4 -17 2909.34  126.02
  14  -4 -17 2913.00  130.31
  14  -4 -17 2763.59  127.66
  14   4 -17 2852.95  130.53
  14  -4 -17 2968.22  147.67
  14   4 -17 2806.13  128.27
  14   4 -17 2769.35  132.80
  14  -4 -16   13.06    3.33
  14  -4 -16   20.57    4.39
  14  -4 -16   14.84   11.95
  14   4 -16   22.47    4.86
  14  -4 -16    4.97    4.35
  14   4 -16   15.50    5.10
  14   4 -16   31.72    7.60
  14  -4 -15 1313.16   61.38
  14  -4 -15 1295.53   64.55
  14   4 -15 1313.02   64.98
  14  -4 -15 1339.51   63.03
  14  -4 -15 1414.69   81.20
  14   4 -15 1358.26   63.10
  14   4 -15 1337.70   67.64
  14  -4 -14   50.65    5.72
  14  -4 -14   63.76    7.09
  14  -4 -14   53.91   13.94
  14   4 -14   58.27    6.57
  14  -4 -14   45.17    6.93
  14   4 -14   45.06    7.22
  14  -4 -13    0.94    2.31
  14  -4 -13    1.78    2.63
  14  -4 -13    2.25    8.69
  14  -4 -13    0.74    3.02
  14   4 -13    4.57    3.37
  14   4 -13   -3.40    2.79
  14  -4 -12   28.14    4.45
  14  -4 -12   30.30    4.93
  14  -4 -12   29.96   11.38
  14  -4 -12   32.09    5.56
  14   4 -12   30.91    5.82
  14   4 -12   35.21    5.25
  14   4 -12   19.08    5.66
  14  -4 -11   89.17    8.39
  14  -4 -11   89.61    7.73
  14  -4 -11   71.91    8.34
  14   4 -11   74.39    8.63
  14  -4 -11   89.83    8.15
  14  -4 -11   58.37   13.63
  14   4 -11   83.21    7.79
  14   4 -11   81.21    9.87
  14  -4 -10    6.68    2.78
  14  -4 -10    6.75    3.20
  14   4 -10    7.45    3.12
  14  -4 -10    7.41    3.31
  14  -4 -10    5.62    7.46
  14  -4 -10    0.67    3.51
  14   4 -10    9.07    3.94
  14   4 -10   10.51    3.07
  14   4 -10    5.27    3.80
  14  -4  -9  280.79   17.24
  14   4  -9  283.82   17.18
  14  -4  -9  291.27   16.37
  14  -4  -9  234.08   16.95
  14   4  -9  262.07   17.59
  14  -4  -9  278.02   16.79
  14   4  -9  263.08   18.77
  14  -4  -8    1.48    3.27
  14  -4  -8    3.08    2.66
  14   4  -8    2.48    2.61
  14  -4  -8   -0.50    2.62
  14  -4  -8    0.65    3.54
  14   4  -8    1.34    3.36
  14   4  -8    0.82    3.80
  14  -4  -7  643.78   35.40
  14  -4  -7  684.41   34.23
  14   4  -7  664.89   34.12
  14  -4  -7  611.26   34.84
  14  -4  -7  625.43   33.00
  14   4  -7  693.45   36.09
  14  -4  -6   -0.77    3.25
  14  -4  -6    9.57    3.02
  14   4  -6    8.90    2.95
  14  -4  -6    1.11    2.57
  14   4  -6   -1.00    3.75
  14   4  -6    3.87    3.50
  14  -4  -5  620.68   32.47
  14  -4  -5  624.77   32.32
  14  -4  -5  595.09   29.95
  14   4  -5  658.35   34.65
  14   4  -5  631.22   31.83
  14   4  -5  546.75   30.01
  14  -4  -5  563.05   30.29
  14  -4  -4   42.37    6.74
  14  -4  -4   30.01    6.16
  14   4  -4   51.70    7.60
  14   4  -4   32.04    6.85
  14  -4  -4   37.50    6.01
  14   4  -4   45.81    6.46
  14   4  -4   53.32    7.12
  14  -4  -3  719.19   38.09
  14   4  -3  544.28   36.35
  14  -4  -3  662.79   35.81
  14   4  -3  741.48   39.58
  14   4  -3  668.84   35.97
  14  -4  -3  728.85   39.27
  14   4  -3  817.68   37.49
  14  -4  -3  752.71   38.39
  14  -4  -3  654.15   37.54
  14  -4  -2   41.74    7.08
  14  -4  -2   37.83    7.00
  14   4  -2   61.33    7.32
  14  -4  -2   41.84    6.24
  14   4  -2   32.79    5.85
  14   4  -2   31.97    6.96
  14  -4  -2   44.44    7.99
  14   4  -2   36.10    5.77
  14  -4  -2   45.76    7.55
  14  -4  -1    0.88    3.61
  14  -4  -1    1.78    4.03
  14  -4  -1    2.10    3.17
  14   4  -1    2.84    3.36
  14   4  -1    4.88    4.22
  14  -4  -1   -1.02    4.31
  14   4  -1   -0.63    2.73
  14  -4  -1    1.87    4.22
  14  -4   0    6.16    4.27
  14   4   0    6.91    4.60
  14  -4   0   11.67    5.44
  14   4   0    7.67    3.11
  14  -4   0    3.95    4.79
  14   4   1  193.95   18.91
  14   4   1  166.13   16.18
  14  -4   1  191.28   17.53
  14   4   1  186.06   14.94
  14   4   1  179.34   13.55
  14  -4   1  202.27   17.47
  14   4   2   61.42    8.98
  14  -4   2   45.60    8.02
  14   4   2   58.09   10.35
  14   4   2   47.26    8.20
  14  -4   2   50.63    9.26
  14   4   2   57.79    6.44
  14  -4   2   62.40    7.18
  14   4   2   63.30    8.20
  14  -4   2   69.04   10.04
  14   4   3    6.24    3.52
  14  -4   3    8.03    4.56
  14   4   3    6.12    5.21
  14  -4   3    0.99    4.98
  14   4   3    2.70    4.87
  14  -4   3    4.46    3.02
  14   4   3    3.03    4.03
  14  -4   3    2.30    4.45
  14   4   3    8.95    4.38
  14  -4   3   10.26    5.39
  14   4   4    7.71    2.94
  14  -4   4    7.02    4.50
  14   4   4   11.57    5.09
  14  -4   4   20.39    5.41
  14   4   4    1.38    5.17
  14  -4   4   14.68    3.78
  14  -4   4    4.70    4.69
  14   4   4    8.62    4.34
  14  -4   5   -0.85    3.78
  14   4   5    4.26    4.48
  14  -4   5    5.16    4.67
  14  -4   5   -1.39    3.00
  14   4   5    7.06    4.91
  14   4   5    1.99    3.00
  14  -4   5    2.37    4.85
  14   4   5    3.61    3.99
  14   4   6    5.76    5.73
  14  -4   6    6.46    3.25
  14  -4   6    4.88    4.08
  14   4   6    1.07    4.72
  14  -4   6    3.10    4.90
  14   4   6   12.25    3.83
  14  -4   6   -2.37    5.12
  14   4   6    3.72    3.82
  14   4   7  885.30   48.68
  14  -4   7  889.73   48.20
  14  -4   7  779.09   45.00
  14   4   7  943.96   53.21
  14  -4   7  886.75   50.01
  14  -4   7  967.26   46.64
  14   4   7  921.49   45.83
  14   4   7  946.40   48.52
  14  -4   7  998.02   46.86
  14   4   8   16.21    4.50
  14   4   8   27.88    7.71
  14   4   8   13.20    6.81
  14  -4   8   11.46    5.78
  14  -4   8    5.89    4.00
  14   4   8   13.45    5.28
  14  -4   8    4.74    5.28
  14  -4   8   10.98    4.45
  14   4   8   14.01    4.57
  14   4   9  213.08   18.38
  14   4   9  235.96   21.77
  14  -4   9  216.02   16.73
  14   4   9  223.00   16.72
  14  -4   9  277.64   20.64
  14  -4   9  273.97   17.76
  14   4   9  246.54   18.93
  14   4   9  235.67   16.79
  14  -4   9  246.84   20.34
  14   4  10   18.18    7.44
  14  -4  10   19.19    4.67
  14  -4  10   23.44    7.02
  14   4  10   20.18    6.21
  14  -4  10   14.61    5.59
  14   4  10   21.63    4.92
  14  -4  10   18.20    5.03
  14   4  10   18.61    4.91
  14   4  11  524.70   32.86
  14  -4  11  434.83   26.28
  14   4  11  442.40   26.29
  14  -4  11  489.39   29.57
  14   4  11  442.03   28.30
  14  -4  11  500.10   26.83
  14   4  11  452.40   26.25
  14  -4  11  492.31   30.18
  14   4  12   47.12    9.40
  14  -4  12   32.39    6.89
  14   4  12   35.87    7.29
  14  -4  12   39.00    7.97
  14  -4  12   41.20    6.19
  14   4  12   40.27    6.23
  14   4  13   33.15    7.83
  14  -4  13   20.31    5.98
  14   4  13   36.16    6.98
  14  -4  13   30.81    7.01
  14  -4  13   33.71    5.27
  14   4  14    0.91    4.23
  14  -4  14    4.02    4.18
  14   4  14   -0.83    3.67
  14  -4  14    1.78    4.69
  14   4  15  140.21   12.67
  14  -4  15  153.81   12.76
  14   4  15  169.48   13.37
  14  -4  15  170.67   13.69
  14  -4  16    6.09    3.38
  14   4  16   -2.73    3.72
  14  -4  16    1.41    3.03
  14  -4  17  198.03   13.28
  14   4  17  208.83   14.18
  14  -4  17  214.49   14.46
  14  -4  18    9.51    3.60
  14  -4  18    7.39    2.34
  14   4  18   13.22    3.59
  14  -4  18   10.07    3.36
  14  -4  19   78.41    6.59
  14   4  19   77.54    6.62
  14  -4  19   71.26    6.24
  14   4  20    5.68    1.88
 -14  -6  30   82.37    6.74
  14  -6 -29   56.45    7.47
  14   6 -28    1.49    3.80
  14  -6 -28    4.52    4.70
  14   6 -27   30.23    6.92
  14  -6 -27   15.80    6.14
  14   6 -26   89.82   12.22
  14  -6 -26  115.03   14.22
  14  -6 -25  336.82   21.18
  14  -6 -25  314.41   26.61
  14  -6 -24  569.62   31.68
  14  -6 -24  509.23   38.41
  14  -6 -23  249.33   26.47
  14  -6 -22  635.18   46.59
  14  -6 -21  444.10   24.58
 -14  -6  20  135.26   12.41
  14  -6 -20  150.56   11.41
  14  -6 -20  120.04   11.71
  14   6 -20  149.84   12.42
  14   6 -20  116.33   13.64
 -14  -6  19  251.79   17.97
  14  -6 -19  262.22   16.75
  14  -6 -19  244.75   17.73
  14   6 -19  262.88   17.80
 -14  -6  19  246.31   16.25
  14   6 -19  287.18   21.83
 -14  -6  18    5.50    3.87
  14  -6 -18    2.45    3.08
  14  -6 -18    9.13    4.03
  14  -6 -18    2.77   11.33
  14   6 -18    5.78    3.27
  14   6 -18    3.71    4.63
 -14  -6  18   -1.69    3.53
 -14  -6  17  245.39   17.13
  14  -6 -17  243.17   15.82
  14  -6 -17  246.20   29.75
  14  -6 -17  243.42   16.98
  14   6 -17  258.19   16.84
 -14  -6  17  211.42   14.90
  14   6 -17  239.58   20.39
  14  -6 -16  103.92    9.11
  14  -6 -16   86.39    9.15
  14  -6 -16   85.64   18.48
  14   6 -16   93.04    9.12
  14   6 -16   77.74   11.27
  14  -6 -15   26.07    5.00
  14  -6 -15   22.83    5.11
  14  -6 -15   11.32   11.63
  14   6 -15   24.77    4.81
  14   6 -15   20.69    6.62
  14  -6 -14  275.20   17.57
  14  -6 -14  240.64   29.94
  14   6 -14  281.86   17.71
  14   6 -14  310.02   22.62
  14  -6 -13  194.50   13.55
  14   6 -13  187.52   13.10
  14  -6 -12  500.35   27.21
  14  -6 -12  438.35   40.09
  14   6 -12  498.29   26.59
  14  -6 -11 1404.51   65.86
  14  -6 -11 1437.95   66.77
  14  -6 -11 1226.85   79.83
  14  -6 -10  769.91   40.21
  14  -6 -10  837.67   40.71
  14  -6 -10  815.68   41.16
  14  -6 -10  767.98   53.11
  14   6 -10  750.30   43.79
  14  -6  -9  263.76   17.52
  14   6  -9  280.21   23.03
  14  -6  -9  287.79   18.34
  14  -6  -9  304.43   28.51
  14   6  -9  254.70   20.04
  14  -6  -9  264.91   17.52
  14  -6  -8   49.55    6.68
  14   6  -8   53.41    9.73
  14  -6  -8   46.78   11.76
  14   6  -8   50.60    8.49
  14  -6  -7  289.39   18.75
  14   6  -7  291.00   23.41
  14  -6  -7  277.60   25.60
  14   6  -7  295.68   21.19
  14  -6  -6  102.43   11.05
  14  -6  -6   95.06   10.11
  14  -6  -6   90.83    9.58
  14   6  -6   86.84   12.25
  14  -6  -6  102.09   14.21
  14   6  -6  111.72   11.90
  14  -6  -5  247.70   18.42
  14  -6  -5  233.61   17.65
  14  -6  -5  241.74   17.01
  14   6  -5  230.20   20.67
  14   6  -5  271.11   19.47
  14  -6  -4  169.26   15.02
  14  -6  -4  178.83   14.82
  14  -6  -4  200.99   14.65
  14   6  -4  155.23   16.79
  14   6  -4  175.21   15.21
  14  -6  -3   28.16    6.53
  14  -6  -3   32.93    6.60
  14   6  -3   23.85    7.34
  14   6  -3   31.77    6.82
  14  -6  -2   72.72    9.53
  14  -6  -2   71.55    9.46
  14   6  -2   94.86   12.71
  14   6  -2   97.49   10.73
  14  -6  -1  278.88   19.36
  14   6  -1  273.39   23.97
  14   6  -1  190.88   19.47
  14   6  -1  266.15   18.71
  14  -6  -1  208.20   17.54
  14  -6   0   44.78    8.00
  14  -6   0   74.95    9.81
  14   6   0   53.86   10.71
  14   6   0   40.83    9.12
  14   6   0   68.59    8.73
  14  -6   1  586.53   34.51
  14   6   1  648.40   41.07
  14   6   1  576.46   37.10
  14   6   1  579.41   32.62
  14  -6   1  522.68   32.60
  14   6   2   90.37   14.83
  14   6   2   97.35   12.99
  14  -6   2  100.45   13.59
  14   6   2   94.48   10.32
  14  -6   3  974.74   51.92
  14   6   3 1052.86   60.29
  14   6   3 1102.78   57.88
  14  -6   3 1101.08   57.94
  14   6   3  989.90   50.91
  14  -6   4   82.55    9.44
  14   6   4   78.62   14.03
  14   6   4   79.10   11.76
  14  -6   4   78.98   12.04
  14  -6   4   87.33   12.62
  14   6   5   60.19   12.27
  14   6   5   55.40    9.74
  14  -6   5   54.85   10.39
  14   6   5   50.52    7.37
  14  -6   5   38.13    9.72
  14   6   6   13.73    8.15
  14   6   6    9.27    6.43
  14  -6   6   -1.30    5.49
  14   6   6   14.98    5.19
  14  -6   6    5.35    6.62
  14   6   7  115.80   16.27
  14   6   7  141.61   15.49
  14  -6   7  135.99   14.84
  14   6   7  147.43   13.15
  14  -6   7  154.51   15.87
  14   6   8   50.03   11.21
  14   6   8   51.59    9.26
  14  -6   8   61.66    9.87
  14   6   8   69.48    8.80
  14  -6   8   68.30   10.89
  14   6   9   57.80   12.17
  14   6   9   46.58    8.40
  14  -6   9   42.10    8.63
  14   6   9   43.31    7.15
  14  -6   9   52.77    9.06
  14   6  10    1.51    5.85
  14  -6  10   -0.99    4.47
  14   6  10    3.23    3.90
  14  -6  10    9.84    5.48
  14   6  11  110.24   14.08
  14  -6  11   74.35    9.86
  14   6  11  113.62   10.81
  14  -6  11  103.62   11.53
  14   6  12   16.27    6.91
  14  -6  12   27.99    5.90
  14   6  12   20.86    5.21
  14  -6  12   34.66    6.95
  14   6  13   31.51    7.53
  14  -6  13   34.44    5.80
  14   6  13   25.73    5.30
  14  -6  13   35.01    6.66
  14   6  14  188.12   15.85
  14   6  14  170.05   12.89
  14  -6  14  204.00   14.52
  14   6  15   35.56    6.38
  14   6  15   19.11    4.14
  14  -6  16   47.67    6.08
  14   6  16   45.58    5.45
  14  -6  17   25.13    3.98
  14   6  17   26.05    3.71
  14  -6  18   69.80    5.87
  14  -8 -27    0.64    3.11
  14  -8 -26    9.78    4.95
  14  -8 -25    1.66    2.93
  14   8 -25   -0.79    3.79
  14  -8 -25   -2.25    5.85
  14  -8 -24  293.80   18.49
  14   8 -24  234.47   19.75
  14  -8 -24  302.40   23.73
  14  -8 -23   49.28    7.47
  14  -8 -23   50.85   11.45
  14   8 -23   41.69    8.92
  14  -8 -22  324.28   19.14
  14   8 -22  339.64   26.60
  14  -8 -22  380.72   30.51
  14  -8 -21   -1.13    2.57
  14   8 -21    1.66    6.60
  14  -8 -20    4.32    3.27
  14   8 -20   14.73    8.15
  14  -8 -19    3.90    3.49
  14   8 -19   -5.94    8.55
  14   8 -18 1119.74   66.20
  14  -8 -18 1146.09   71.25
  14  -8 -18 1052.17   52.59
  14  -8 -17   14.94    4.62
  14   8 -17   39.37   11.86
  14  -8 -17   36.61   14.66
  14  -8 -16  664.99   35.15
  14   8 -16  734.05   47.65
  14  -8 -15   41.42    6.35
  14   8 -15   49.03   12.39
  14  -8 -15   39.42    6.68
  14  -8 -15   29.74   14.46
  14   8 -15   45.90    8.82
  14  -8 -14  295.81   19.23
  14   8 -14  317.87   28.18
  14  -8 -14  296.64   20.14
  14  -8 -14  270.80   32.74
  14   8 -14  334.85   24.16
  14   8 -13    7.20    7.17
  14  -8 -13   -1.41    3.40
  14  -8 -13   -0.80    3.64
  14  -8 -13    8.78   11.64
  14   8 -13    1.23    4.44
  14  -8 -12  288.19   18.47
  14   8 -12  292.91   25.49
  14  -8 -12  299.77   32.50
  14  -8 -12  258.96   18.55
  14   8 -12  245.61   21.08
  14  -8 -11    3.67    3.95
  14   8 -11    3.33    6.43
  14  -8 -11    0.81    3.42
  14  -8 -11   -8.05   10.03
  14  -8 -10  383.82   23.07
  14   8 -10  350.99   28.94
  14  -8 -10  373.03   35.01
  14  -8  -9   22.61    5.51
  14   8  -9   25.57    8.37
  14  -8  -9   21.13   12.03
  14   8  -9   23.05    6.90
  14  -8  -8    3.23    3.82
  14  -8  -8    1.98    4.67
  14  -8  -8   10.78    9.30
  14   8  -8    2.41    4.51
  14  -8  -7   75.67   10.08
  14  -8  -7   65.22    8.72
  14  -8  -7   65.51    9.72
  14  -8  -7   64.65   13.68
  14   8  -7   70.68   10.92
  14  -8  -6 1353.21   65.44
  14  -8  -6 1278.59   63.67
  14  -8  -6 1251.29   64.94
  14  -8  -6 1190.12   70.84
  14   8  -6 1321.85   66.92
  14  -8  -5   22.21    6.81
  14  -8  -5   20.64    5.94
  14   8  -5   20.89    8.10
  14  -8  -5   14.26    8.83
  14   8  -5   22.52    6.73
  14  -8  -4 2355.73  110.25
  14   8  -4 2457.36  119.26
  14   8  -4 2359.58  116.59
  14  -8  -4 2072.92  112.80
  14   8  -4 2538.61  112.87
  14   8  -3  105.42   16.43
  14   8  -3  127.91   15.94
  14   8  -3  126.67   13.76
  14  -8  -3  105.02   11.75
  14   8  -2  255.68   24.43
  14   8  -2  232.34   22.34
  14   8  -2  262.25   20.51
  14  -8  -2  217.11   18.03
  14  -8  -1    0.93    3.69
  14   8  -1    3.71    8.20
  14   8  -1   -6.59    6.75
  14   8  -1    2.20    3.98
  14  -8   0    4.37    3.98
  14  -8   0   21.12    6.03
  14   8   0   24.20    9.17
  14   8   0    6.56    7.43
  14   8   0   11.65    4.92
  14  -8   1    2.87    4.23
  14   8   1   -3.73    6.98
  14   8   1    3.24    6.06
  14   8   1    2.02    4.01
  14  -8   2  166.86   15.35
  14   8   2  170.00   20.43
  14   8   2  208.22   20.19
  14   8   2  176.54   15.50
  14  -8   3    1.02    4.31
  14   8   3   -4.70    6.60
  14  -8   4  262.73   19.74
  14   8   4  220.45   21.87
  14  -8   5    6.27    4.95
  14   8   5    8.84    6.21
  14  -8   6  335.05   23.56
  14   8   6  332.68   25.99
  14  -8   7    4.92    4.77
  14   8   7   18.30    8.51
  14   8   7   22.28    7.17
  14  -8   8  251.33   18.82
  14   8   8  273.68   23.62
  14   8   8  231.90   20.07
  14  -8   9   11.93    4.96
  14   8   9   10.10    6.84
  14   8   9   15.55    6.11
  14  -8  10   44.00    7.10
  14   8  10   39.00    9.05
  14  -8  11    2.75    3.70
  14   8  11    1.14    4.93
  14  -8  12    1.21    2.97
  14   8  12   -0.98    4.89
  14  -8  13   12.39    3.49
  14   8  13   14.38    5.26
  14  -8  14    4.70    2.55
  14   8  14    8.71    3.81
  14  -8  15   -0.33    1.75
  14   8  15    1.32    2.40
  14 -10 -23   60.76    6.42
  14 -10 -23   58.48    7.95
  14 -10 -22  355.80   21.10
  14 -10 -21    3.56    3.76
  14  10 -21   -1.68    4.14
  14 -10 -20   -0.80    4.17
  14  10 -20    4.37    4.95
  14 -10 -19  104.21   11.26
  14 -10 -19  115.58    9.90
  14 -10 -19  111.82   16.01
  14  10 -19   97.32   13.29
  14 -10 -18   53.70    6.96
  14  10 -18   66.62   11.89
  14 -10 -18   39.56   11.07
  14 -10 -17  372.15   33.21
  14 -10 -17  458.06   24.84
  14  10 -17  359.95   31.02
  14 -10 -16  430.83   24.73
  14  10 -16  407.90   33.09
  14 -10 -16  392.15   34.59
  14  10 -15   55.55   12.36
  14 -10 -15   61.54    7.69
  14 -10 -15   41.62   13.42
  14 -10 -14  118.74   10.93
  14  10 -14  138.50   18.70
  14 -10 -14  101.72   18.94
  14 -10 -13   26.71    5.74
  14  10 -13   17.05    9.21
  14 -10 -13   37.27   13.61
  14 -10 -12  189.21   15.81
  14 -10 -12  189.00   14.53
  14  10 -12  218.72   22.23
  14 -10 -11  255.62   18.17
  14 -10 -11  205.85   15.97
  14  10 -11  214.88   23.26
  14  10 -11  240.11   23.42
  14 -10 -11  176.56   24.55
  14 -10 -10  432.72   26.45
  14 -10 -10  405.85   25.01
  14  10 -10  423.91   33.23
  14  10 -10  395.33   31.60
  14 -10 -10  398.07   35.88
  14 -10  -9  167.68   14.53
  14 -10  -9  155.28   13.30
  14  10  -9  144.86   18.45
  14  10  -9  151.96   18.18
  14 -10  -9  134.97   20.30
  14 -10  -8    7.43    4.92
  14  10  -8   10.58    7.43
  14  10  -8   13.38    6.86
  14 -10  -8    8.14    7.86
  14 -10  -7    7.43    4.59
  14  10  -7   13.16    7.95
  14  10  -7    3.49    7.90
  14 -10  -7    9.20    7.54
  14 -10  -6  165.43   14.46
  14  10  -6  131.10   17.41
  14  10  -6  162.99   18.42
  14 -10  -6  150.00   17.88
  14 -10  -5    3.60    4.17
  14  10  -5   11.98    7.92
  14 -10  -5    7.14    6.90
  14 -10  -4   35.31    6.84
  14 -10  -4   42.00    8.45
  14 -10  -3   -1.61    4.03
  14  10  -3    8.46    8.16
  14  10  -2  164.76   18.46
  14 -10  -2  138.99   12.13
  14  10  -1   44.91   10.99
  14  10  -1   27.77    9.42
  14  10   0  203.70   21.23
  14  10   0  208.05   20.16
  14  10   1  261.33   24.41
  14  10   1  308.69   24.66
  14  10   2   59.75   11.76
  14  10   2   45.47    9.55
  14  10   3  223.52   20.91
  14  10   3  181.16   18.36
  14  10   4  222.14   19.75
  14  10   4  232.62   21.32
  14  10   5  154.76   16.68
  14  10   5  135.59   14.70
  14  10   6    7.61    6.60
  14  10   6    7.54    5.70
  14  10   7    1.15    5.10
  14  10   7    3.78    4.37
  14  10   8   69.57    9.79
  14  10   8   58.22    7.93
  14  10   9   19.44    5.84
  14  10  12    0.42    2.13
  14 -12 -17  776.76   41.22
  14 -12 -17  809.40   39.50
  14 -12 -16    2.95    3.07
  14 -12 -16   -0.90    4.00
  14 -12 -15  232.17   18.53
  14 -12 -15  236.73   14.98
  14 -12 -14    9.42    3.76
  14  12 -14    5.26    5.39
  14  12 -13   44.18    9.07
  14 -12 -13   57.67   10.77
  14 -12 -13   59.43    7.21
  14  12 -12   57.68   10.49
  14 -12 -12   48.79   11.01
  14 -12 -12   61.81    7.13
  14  12 -11  326.09   25.56
  14 -12 -11  344.30   27.51
  14 -12 -11  339.69   20.26
  14 -12 -10    6.43    3.31
  14  12 -10   12.47    6.30
  14  12 -10   11.89    6.51
  14 -12 -10   11.65    7.18
  14  12  -9  457.88   31.09
  14  12  -9  516.97   32.63
  14 -12  -9  488.51   32.97
  14 -12  -9  452.43   25.44
  14 -12  -8    2.60    2.56
  14  12  -8    6.22    5.88
  14  12  -8   10.15    6.60
  14 -12  -8    2.45    4.10
  14 -12  -7   -0.94    1.50
  14  12  -7   21.20    8.07
  14  12  -7   28.26    7.69
  14 -12  -7   -1.04    2.24
  14  12  -6    3.69    5.56
  14  12  -6   -3.55    5.23
  14  12  -5  195.08   18.10
  14  12  -5  193.33   17.37
  14  12  -4    8.10    5.71
  14  12  -4   14.31    5.84
  14  12  -3  117.68   13.50
  14  12  -3  140.59   13.86
  14  12  -2   39.15    7.92
  14  12  -2   31.44    7.28
  14  12  -1   66.04    9.82
  14  12   0   -0.94    4.43
  14  12   1  493.90   29.14
  14  12   1  479.69   28.76
  14  12   2   52.69    7.80
  14  12   2   58.45    8.02
  14  12   3  154.84   12.58
  14  12   3  150.10   12.34
  14  12   4    0.61    2.93
  14  12   4    0.60    2.70
  14  12   5   16.20    3.81
  15  -1 -32   96.54    8.67
  15   1 -32  113.54    9.16
 -15   1  31   37.50    4.80
 -15  -1  31   30.65    4.56
  15  -1 -31   55.79    7.14
  15   1 -31   50.14    6.79
  15  -1 -30  822.95   43.16
  15   1 -30  832.56   43.22
 -15   1  30  819.69   40.42
 -15   1  29   29.30    5.35
  15   1 -29   39.75    7.43
 -15   1  28  414.46   24.15
 -15   1  27    9.41    4.49
  15  -1 -27    8.01    7.09
 -15   1  26   12.23    4.51
  15  -1 -26    7.04    7.42
  15  -1 -25   35.65   11.70
 -15   1  25   36.99    6.76
 -15  -1  24  349.28   21.93
 -15   1  24  334.77   21.16
  15   1 -24  344.50   22.50
 -15   1  24  322.57   21.76
 -15  -1  23  602.11   32.99
 -15   1  23  583.44   32.15
  15  -1 -23  646.52   43.79
  15   1 -23  597.59   33.73
  15  -1 -23  617.38   34.23
 -15   1  23  575.00   32.99
 -15   1  22  406.65   24.06
  15   1 -22  400.48   25.08
  15  -1 -22  419.40   25.59
  15   1 -21   10.87    3.99
  15  -1 -21   10.66    4.35
  15   1 -21    6.13    5.31
  15   1 -20   28.75    9.34
  15  -1 -20   32.43   10.98
  15   1 -20   32.30    5.75
  15  -1 -20   31.81    6.06
  15   1 -20   39.03    8.36
  15   1 -19    6.62    7.32
  15  -1 -19    1.86    6.70
  15  -1 -19    0.50    2.33
  15   1 -19    2.07    3.06
  15  -1 -19    0.73    3.15
  15   1 -19    7.20    5.43
  15   1 -18  436.38   32.59
  15  -1 -18  510.47   35.89
  15  -1 -18  434.49   23.71
  15   1 -18  421.16   25.01
  15  -1 -18  472.46   26.06
  15   1 -17  341.51   27.49
  15  -1 -17  392.29   30.59
  15  -1 -17  350.67   19.58
  15   1 -17  341.75   20.66
  15   1 -16  509.19   34.56
  15  -1 -16  470.87   35.54
  15  -1 -16  502.87   26.08
  15   1 -16  488.89   27.13
  15   1 -16  553.67   32.59
  15  -1 -15   30.86    4.53
  15  -1 -15   30.59    6.59
  15   1 -15   20.16    7.46
  15  -1 -15   26.88    9.00
  15   1 -15   31.31    4.82
  15  -1 -15   27.83    6.18
  15   1 -15   44.99    7.21
  15   1 -15   28.65    7.07
  15  -1 -15   43.54    8.16
  15  -1 -14   31.57    6.24
  15   1 -14   28.07    7.38
  15  -1 -14   32.74    9.29
  15  -1 -14   33.54    4.54
  15   1 -14   25.45    4.54
  15  -1 -14   27.63    5.92
  15   1 -14   37.93    6.93
  15   1 -14   43.55    7.75
  15  -1 -14   33.10    7.26
  15  -1 -13    2.64    3.89
  15   1 -13    3.26    4.45
  15  -1 -13    4.14    5.49
  15  -1 -13    2.67    2.27
  15   1 -13    7.57    3.09
  15  -1 -13    1.57    3.47
  15   1 -13    1.58    3.32
  15   1 -13   -0.96    3.93
  15  -1 -13    5.89    4.34
  15  -1 -12  859.55   45.12
  15   1 -12  815.71   44.78
  15   1 -12  830.07   46.66
  15   1 -12  973.83   47.42
  15  -1 -12  997.63   47.62
  15  -1 -12  869.38   46.21
  15  -1 -11   15.87    5.11
  15  -1 -11   27.03    5.66
  15   1 -11   25.60    5.54
  15   1 -11   14.42    4.85
  15  -1 -11   21.61    5.31
  15  -1 -10 1135.65   57.36
  15   1 -10 1117.10   57.40
  15   1 -10 1225.75   58.71
  15  -1 -10 1253.96   57.96
  15  -1 -10 1201.26   58.89
  15   1  -9   39.49    5.73
  15  -1  -9   33.26    5.99
  15   1  -9   41.25    6.41
  15   1  -9   37.14    6.20
  15  -1  -9   47.96    6.21
  15  -1  -8   58.20    7.70
  15   1  -8   73.50    7.33
  15   1  -8   55.37    7.11
  15  -1  -8   46.40    6.68
  15  -1  -8   66.04    6.79
  15   1  -8   50.69    6.86
  15  -1  -7  524.05   29.28
  15   1  -7  526.33   28.03
  15  -1  -7  452.05   27.56
  15   1  -7  465.31   27.92
  15   1  -7  551.51   28.06
  15  -1  -7  515.42   26.22
  15  -1  -6   59.91    8.02
  15   1  -6   57.46    6.84
  15  -1  -6   59.78    7.80
  15  -1  -6   60.44    7.45
  15   1  -6   54.79    7.23
  15   1  -6   63.33    6.86
  15  -1  -6   55.64    5.61
  15  -1  -5    2.39    3.08
  15  -1  -5   -0.78    3.51
  15   1  -5    4.10    2.64
  15   1  -5   -1.40    3.76
  15  -1  -5   -0.68    3.36
  15   1  -5    9.56    3.16
  15  -1  -4  231.56   16.72
  15   1  -4  206.32   15.82
  15  -1  -4  217.24   15.68
  15   1  -4  220.58   15.71
  15   1  -4  237.52   13.72
  15   1  -4  221.45   15.61
  15   1  -3  363.31   21.85
  15   1  -3  318.82   20.93
  15   1  -3  312.34   20.63
  15  -1  -3  320.48   20.53
  15   1  -3  334.12   17.60
  15   1  -2   11.81    4.65
  15   1  -2    9.73    4.52
  15  -1  -2    7.74    3.99
  15   1  -2   19.38    4.83
  15  -1  -2   10.78    4.43
  15   1  -2   13.71    2.51
  15   1  -1    8.75    4.08
  15   1  -1    3.34    4.35
  15  -1  -1   12.16    4.27
  15   1  -1    8.04    3.54
  15  -1  -1   13.56    4.63
  15   1  -1    6.97    3.88
  15   1   0   43.67    6.87
  15  -1   0   44.42    7.37
  15   1   0   37.02    6.95
  15  -1   0   52.76    7.99
  15  -1   0   36.66    6.24
  15   1   0   34.48    6.37
  15   1   0   52.39    6.33
  15  -1   0   45.76    7.28
  15   1   0   47.82    6.98
  15   1   1    6.60    3.84
  15  -1   1    4.41    4.44
  15  -1   1   13.46    5.21
  15  -1   1    9.66    4.50
  15   1   1    5.49    4.02
  15   1   1   10.45    3.67
  15   1   2   34.63    6.58
  15  -1   2   24.63    5.97
  15  -1   2   24.71    5.93
  15   1   2   12.79    4.15
  15  -1   2   27.91    6.35
  15   1   2   17.46    4.90
  15   1   3   13.85    4.61
  15   1   3   19.53    5.10
  15  -1   3   13.01    5.18
  15  -1   3   11.81    5.05
  15   1   3   14.14    5.00
  15   1   3   10.69    3.80
  15   1   3    8.72    3.97
  15   1   4   18.60    5.68
  15   1   4   35.41    5.41
  15  -1   4   13.93    5.38
  15   1   4   18.73    5.66
  15   1   4   25.18    4.95
  15   1   4   14.75    5.19
  15   1   4   23.06    5.17
  15   1   5   24.38    6.10
  15   1   5   27.03    4.69
  15  -1   5   16.47    5.29
  15   1   5   14.03    5.18
  15   1   5   24.83    4.96
  15   1   5   12.32    5.25
  15   1   5   21.81    4.79
  15   1   6  250.56   18.56
  15   1   6  214.99   16.06
  15  -1   6  213.46   16.62
  15   1   6  253.11   19.61
  15   1   6  255.71   17.40
  15   1   6  269.62   17.68
  15   1   6  247.69   18.84
  15   1   7    8.27    4.72
  15  -1   7   20.64    4.01
  15   1   7    7.79    5.39
  15   1   7    3.91    3.32
  15  -1   7    3.30    5.22
  15   1   7    7.81    4.45
  15   1   7    2.32    3.69
  15   1   8   31.01    6.93
  15  -1   8   56.54    6.40
  15   1   8   17.57    7.06
  15   1   8   33.42    6.54
  15  -1   8   34.98    7.78
  15   1   8   36.13    7.56
  15   1   8   33.02    6.77
  15   1   9  318.11   23.10
  15   1   9  283.60   23.26
  15   1   9  344.71   22.82
  15   1   9  359.14   23.03
  15  -1   9  321.45   24.49
  15   1   9  283.29   23.00
  15   1  10  124.90   12.56
  15   1  10  133.28   12.21
  15   1  10  125.71   12.04
  15  -1  10  163.41   14.93
  15   1  11   11.43    4.58
  15   1  11   25.89    5.62
  15  -1  11   25.42    6.52
  15   1  11   17.70    5.51
  15   1  12  109.00   10.69
  15  -1  12   85.77    9.69
  15   1  12  105.77   10.66
  15  -1  12  107.00   11.76
  15   1  12  118.24   10.80
  15   1  13   11.61    4.19
  15  -1  13    2.77    4.66
  15   1  14  164.22   12.33
  15  -1  14  184.69   14.19
  15  -1  14  139.00   13.54
  15   1  14  154.35   13.77
  15   1  14  175.23   13.07
  15  -1  15   43.73    6.45
  15  -1  15   30.09    6.19
  15   1  15   26.83    5.93
  15   1  15   35.76    5.79
  15  -1  16   58.92    7.27
  15  -1  16   68.01    8.05
  15   1  16   75.57    7.53
  15   1  16   56.57    7.80
  15  -1  17    2.35    2.70
  15  -1  17    4.30    3.03
  15   1  17    4.40    3.38
  15  -1  17    7.69    3.82
  15  -1  18   -0.33    0.79
  15  -1  18    3.56    2.73
  15   1  18    5.84    3.44
  15  -1  18    4.81    2.87
  15  -1  19   58.75    5.82
  15   1  19   64.02    6.14
  15  -1  19   53.75    5.72
  15   1  19   52.66    5.76
  15  -1  20   27.62    3.21
  15   1  20   32.93    3.78
  15  -1  20   28.17    3.49
  15   1  20   26.07    3.43
  15  -3 -31   29.97    4.60
  15   3 -31   21.32    4.20
  15  -3 -30   38.48    5.74
  15   3 -30   39.51    5.94
  15  -3 -29  109.84   10.83
  15   3 -29   99.70   10.46
  15  -3 -29  127.25   13.25
 -15   3  29  122.61    9.79
 -15  -3  29  108.39    9.19
  15  -3 -28  150.09   13.60
  15   3 -28  159.41   13.69
  15  -3 -28  128.51   15.40
 -15   3  28  154.91   11.82
 -15  -3  28  149.76   11.55
 -15   3  27   49.07    6.77
 -15  -3  27   42.31    6.57
  15  -3 -27   55.71   10.85
  15  -3 -27   40.22    8.04
  15   3 -27   45.44    8.10
  15  -3 -26   94.67   11.78
  15   3 -26   96.10   11.94
  15  -3 -26  106.05   15.66
 -15   3  26   98.29    9.86
 -15  -3  26   90.58    9.48
  15  -3 -25  933.45   57.62
  15  -3 -25  982.17   51.63
  15   3 -25  894.50   50.57
 -15   3  25  964.14   47.80
 -15  -3  25  918.91   47.29
 -15  -3  24   60.37    7.96
  15  -3 -24   56.92   12.96
  15  -3 -24   56.67    9.93
 -15   3  24   61.88    8.23
 -15  -3  23  894.03   47.54
  15   3 -23  971.11   48.86
 -15   3  23 1008.61   48.24
 -15  -3  23  942.89   47.54
  15   3 -23  844.78   50.06
 -15  -3  22  171.33   14.28
  15  -3 -22  176.22   13.78
  15   3 -22  186.81   15.04
 -15   3  22  185.62   14.39
 -15  -3  22  170.12   13.79
  15   3 -22  183.97   16.98
  15  -3 -21  447.73   25.52
  15   3 -21  426.30   26.45
 -15   3  21  434.79   25.80
 -15  -3  21  447.05   25.84
  15   3 -21  423.50   29.23
  15  -3 -20    7.76    4.39
  15  -3 -20    0.69    2.91
  15  -3 -20    2.23    8.34
  15   3 -20    5.60    3.78
  15  -3 -20    3.00    4.53
  15   3 -20   -1.21    5.22
  15  -3 -19  297.39   20.76
  15  -3 -19  261.44   17.67
  15  -3 -19  260.36   19.65
  15  -3 -19  296.21   28.88
  15   3 -19  271.67   20.43
  15   3 -19  268.95   21.49
  15  -3 -18  118.68   10.49
  15  -3 -18  123.10   12.23
  15   3 -18  132.63   13.06
  15  -3 -18  113.03   18.43
  15   3 -18  126.55   13.93
  15  -3 -17  478.22   28.56
  15   3 -17  456.65   28.86
  15  -3 -17  487.48   26.49
  15  -3 -17  467.40   37.76
  15  -3 -16   15.83    3.98
  15  -3 -16   16.46    8.68
  15  -3 -16    9.30    4.35
  15   3 -16   12.44    4.73
  15  -3 -15  117.25   11.56
  15   3 -15  115.87   11.76
  15  -3 -15  129.26   10.29
  15  -3 -15  129.65   18.13
  15   3 -15  105.09    9.73
  15  -3 -14    1.15    2.36
  15  -3 -14    3.83    6.92
  15  -3 -14   -0.80    3.26
  15   3 -14    4.93    4.04
  15   3 -14    0.60    2.72
  15   3 -14   -1.01    4.15
  15  -3 -13  202.96   15.52
  15  -3 -13  180.36   14.35
  15   3 -13  172.33   14.35
  15  -3 -13  188.90   13.00
  15  -3 -13  195.43   21.60
  15   3 -13  198.08   13.39
  15   3 -13  173.31   15.43
  15  -3 -12  758.57   41.49
  15   3 -12  801.96   41.43
  15  -3 -12  781.97   37.75
  15  -3 -12  813.90   39.29
  15  -3 -12  745.29   40.68
  15  -3 -12  672.16   47.88
  15   3 -12  847.53   39.60
  15   3 -12  790.06   42.98
  15  -3 -11  544.90   30.93
  15  -3 -11  542.27   27.33
  15  -3 -11  507.70   29.75
  15   3 -11  527.07   30.16
  15  -3 -11  554.68   37.90
  15  -3 -11  545.78   28.64
  15   3 -11  544.36   31.52
  15  -3 -10   79.31    9.39
  15  -3 -10   80.77    8.22
  15   3 -10   76.99    8.13
  15  -3 -10   84.30    7.21
  15  -3 -10   68.54    8.22
  15   3 -10   77.07    8.79
  15  -3 -10   67.83    7.33
  15   3 -10   86.49    9.80
  15  -3  -9    0.81    3.14
  15  -3  -9   -0.48    2.34
  15  -3  -9    0.65    2.79
  15   3  -9    0.67    2.57
  15  -3  -9    2.10    3.02
  15   3  -9    1.46    3.08
  15   3  -9    3.30    4.07
  15  -3  -8  142.09   12.74
  15  -3  -8  148.84   12.71
  15  -3  -8  139.72   11.14
  15   3  -8  145.07   11.44
  15  -3  -8  125.58   11.24
  15   3  -8  109.94   10.95
  15   3  -8  175.89   13.32
  15  -3  -7   28.51    5.99
  15  -3  -7   25.36    6.07
  15  -3  -7   35.13    5.19
  15   3  -7   27.42    5.11
  15  -3  -7   23.88    5.17
  15   3  -7   28.72    5.43
  15   3  -7   13.78    4.44
  15  -3  -6    3.42    3.88
  15  -3  -6    4.83    3.65
  15   3  -6    1.02    4.39
  15  -3  -6    8.76    3.57
  15   3  -6    5.56    3.01
  15   3  -6    6.42    4.25
  15  -3  -6    3.41    3.49
  15   3  -6    4.28    3.58
  15   3  -6    1.47    3.01
  15  -3  -5  440.00   25.02
  15   3  -5  313.60   24.00
  15  -3  -5  354.44   22.70
  15   3  -5  359.60   22.99
  15  -3  -5  441.72   25.59
  15   3  -5  435.69   23.81
  15  -3  -5  381.47   23.18
  15  -3  -5  414.96   23.53
  15   3  -5  380.35   23.15
  15  -3  -4    4.17    3.79
  15   3  -4   17.10    5.88
  15  -3  -4    5.48    3.45
  15   3  -4    4.27    3.58
  15  -3  -4    8.93    4.65
  15  -3  -4   14.74    4.73
  15   3  -4    5.87    3.29
  15  -3  -3    8.16    4.38
  15  -3  -3    7.69    4.37
  15   3  -3   11.96    4.87
  15  -3  -3    4.87    3.09
  15   3  -3    3.58    3.60
  15  -3  -3    6.44    4.45
  15  -3  -3    4.67    3.37
  15   3  -3    6.06    3.21
  15  -3  -2  163.44   13.70
  15   3  -2  129.24   11.94
  15  -3  -2  133.96   11.72
  15   3  -2  135.56   11.87
  15   3  -2  161.58   11.26
  15  -3  -2  135.89   12.45
  15  -3  -2  112.86   12.22
  15   3  -1   25.23    5.39
  15  -3  -1   25.46    6.16
  15  -3  -1   21.89    5.18
  15   3  -1   13.49    4.34
  15  -3  -1   17.48    5.30
  15   3  -1   26.86    4.31
  15   3   0    7.22    3.82
  15  -3   0   -5.67    4.47
  15   3   0    1.16    4.63
  15   3   0    1.38    2.49
  15  -3   0    3.71    4.20
  15   3   0   -0.44    1.99
  15   3   1  187.91   14.84
  15   3   1  164.68   13.96
  15   3   1  238.92   19.44
  15  -3   1  237.40   18.26
  15   3   1  211.47   15.50
  15  -3   1  240.13   18.04
  15   3   2  196.32   14.98
  15   3   2  175.25   14.12
  15  -3   2  177.36   15.69
  15   3   2  204.43   18.23
  15  -3   2  226.83   18.11
  15  -3   2  210.27   14.64
  15   3   2  206.14   15.68
  15   3   2  215.15   14.53
  15  -3   2  213.07   17.43
  15   3   3  153.34   13.48
  15  -3   3  143.93   14.33
  15   3   3  168.69   15.95
  15  -3   3  183.97   15.91
  15   3   3  190.13   17.63
  15  -3   3  164.92   13.14
  15   3   3  189.79   13.75
  15  -3   3  180.32   16.76
  15   3   3  170.52   14.65
  15  -3   3  187.26   16.95
  15   3   4   17.36    4.80
  15  -3   4   21.34    5.80
  15   3   4   25.21    6.75
  15  -3   4   20.93    6.37
  15   3   4   20.03    7.00
  15  -3   4   25.95    5.23
  15   3   4   23.22    4.92
  15  -3   4   16.22    5.77
  15   3   4   17.85    5.52
  15  -3   4   20.30    6.77
  15  -3   5   99.71   10.98
  15   3   5  112.78   12.86
  15  -3   5   84.02   11.30
  15   3   5   97.04   12.71
  15   3   5  120.11   10.50
  15  -3   5  107.87   10.14
  15  -3   5  133.25   14.06
  15   3   5  112.06   11.65
  15  -3   5   95.90   12.33
  15  -3   6   41.31    7.15
  15   3   6   39.42    8.14
  15  -3   6   51.44    8.69
  15   3   6   63.23    7.76
  15  -3   6   48.71    9.15
  15   3   6   56.33    8.54
  15  -3   6   64.20   10.25
  15  -3   6   42.88    6.83
  15  -3   6   54.84    7.52
  15  -3   7  207.33   16.16
  15   3   7  227.22   19.11
  15  -3   7  237.27   18.82
  15   3   7  197.58   19.76
  15  -3   7  256.83   17.43
  15   3   7  269.84   17.47
  15  -3   7  256.26   20.52
  15   3   7  227.83   18.11
  15  -3   7  265.54   17.45
  15   3   7  278.14   17.58
  15  -3   8   27.00    4.14
  15   3   8   13.99    5.31
  15  -3   8   11.28    4.97
  15   3   8    5.12    5.81
  15  -3   8    5.96    3.40
  15  -3   8    4.63    5.72
  15   3   8    4.76    4.43
  15   3   8   11.09    3.93
  15  -3   8    6.64    4.53
  15   3   8    7.35    4.33
  15  -3   9  126.74    7.89
  15  -3   9  165.47   12.90
  15   3   9   84.22   12.17
  15   3   9   25.83    7.73
  15  -3   9   16.83    4.89
  15  -3   9   24.69    7.56
  15   3   9   12.31    5.36
  15   3   9   22.11    5.41
  15  -3   9   24.57    5.71
  15   3   9   27.03    5.86
  15   3  10   -2.30    4.45
  15  -3  10    2.84    2.92
  15  -3  10    2.15    4.65
  15   3  10    3.76    4.35
  15   3  10   -0.73    3.64
  15  -3  10    6.30    3.82
  15   3  10    0.72    3.40
  15   3  11  138.80   14.40
  15  -3  11  149.78   14.47
  15   3  11  169.90   14.62
  15  -3  11  152.66   12.20
  15   3  11  165.00   12.68
  15  -3  11  164.26   15.38
  15   3  12    5.45    4.48
  15  -3  12    5.74    4.53
  15   3  12    4.46    4.31
  15  -3  12    5.96    5.25
  15  -3  12    2.54    3.30
  15   3  12    1.32    3.72
  15  -3  13    2.66    3.94
  15   3  13   14.49    5.66
  15  -3  13   16.73    5.83
  15  -3  13   10.08    3.46
  15  -3  14   72.59    8.95
  15   3  14   76.70    9.07
  15  -3  14   79.48    9.56
  15  -3  15   30.08    5.90
  15   3  15   28.50    5.94
  15  -3  15   26.15    5.68
  15  -3  16    9.06    3.76
  15  -3  16    6.15    3.32
  15   3  16    9.13    3.94
  15  -3  16    4.70    4.01
  15  -3  17   22.80    4.47
  15  -3  17   23.11    4.32
  15  -3  17   18.65    4.46
  15  -3  18    3.23    2.34
  15  -3  18    3.01    2.21
  15  -3  18    0.45    2.34
  15  -3  19  116.17    8.03
  15   5 -29  553.33   31.26
  15  -5 -29  540.01   31.29
  15   5 -28  143.89    9.04
  15  -5 -28  171.83   13.94
 -15  -5  27   32.54    4.38
  15  -5 -27   46.58    9.34
  15   5 -27   41.53    6.05
 -15  -5  26   13.12    3.53
  15  -5 -26   14.68    7.52
  15  -5 -26   14.62    4.73
  15   5 -26   13.62    4.66
  15  -5 -25  112.51   11.79
  15   5 -25  109.13   11.53
  15  -5 -25   86.71   14.36
 -15   5  25  117.37    9.85
 -15  -5  25  115.44    9.78
  15  -5 -24    6.75    4.31
 -15   5  24    2.44    3.28
 -15  -5  24    3.65    3.37
  15  -5 -24    1.85    6.69
  15  -5 -24    3.77    4.17
  15   5 -24    0.91    4.14
  15  -5 -23  448.01   26.77
  15  -5 -23  473.73   27.57
  15   5 -23  385.13   25.81
 -15   5  23  384.61   23.19
 -15  -5  23  376.88   23.10
 -15   5  22   19.59    4.72
 -15  -5  22   13.79    4.35
  15  -5 -22   15.88    5.79
  15   5 -22   14.71    5.56
 -15  -5  21   14.03    4.54
  15  -5 -21   20.14    5.00
  15  -5 -21    5.89    4.58
  15   5 -21    9.84    4.88
  15   5 -21   22.14    5.22
  15   5 -21   13.09    6.11
 -15   5  21   15.10    4.52
 -15  -5  21   13.25    4.56
 -15  -5  20    8.22    4.27
  15  -5 -20    9.95    3.91
  15  -5 -20   -2.36    9.41
  15  -5 -20   -0.96    4.33
  15   5 -20    7.77    5.05
  15   5 -20    8.04    3.88
 -15   5  20    0.65    3.28
 -15  -5  20    3.29    3.31
  15   5 -20    6.15    5.70
 -15  -5  19  534.29   30.47
  15  -5 -19  531.41   31.52
  15   5 -19  507.50   31.37
  15  -5 -19  505.78   29.64
  15  -5 -19  537.28   42.64
  15   5 -19  557.55   30.54
 -15   5  19  528.21   28.92
 -15  -5  19  555.99   29.28
  15   5 -19  502.32   33.58
  15  -5 -18   91.95    8.14
  15  -5 -18   60.14    7.84
  15  -5 -18   88.83   17.61
  15   5 -18   73.56    8.60
  15  -5 -18   76.42    9.66
  15   5 -18   62.44    9.12
  15   5 -18   62.22   10.37
  15  -5 -17 1299.67   61.01
  15  -5 -17 1265.95   63.76
  15   5 -17 1319.22   64.38
  15  -5 -17 1276.57   62.51
  15  -5 -17 1359.93   79.63
  15   5 -17 1278.86   62.52
  15   5 -17 1344.36   67.89
  15  -5 -16    3.99    3.06
  15  -5 -16    0.70    3.11
  15  -5 -16    2.48    9.58
  15  -5 -16   -1.66    3.84
  15   5 -16    3.42    3.40
  15   5 -16    4.13    2.97
  15   5 -16   -3.59    4.90
  15  -5 -15 1059.87   49.03
  15  -5 -15 1009.16   51.12
  15   5 -15  966.54   51.03
  15  -5 -15  999.55   50.04
  15  -5 -15  986.96   65.55
  15   5 -15 1006.20   49.68
  15   5 -14   58.33    7.34
  15  -5 -14   54.87    6.36
  15  -5 -14   56.70    7.25
  15  -5 -14   70.19    7.66
  15  -5 -14   47.94   14.06
  15  -5 -14   43.10    7.11
  15   5 -14   45.45    7.31
  15   5 -14   41.59    6.23
  15  -5 -13   73.64    8.30
  15   5 -13   75.98    8.22
  15  -5 -13   78.82    7.86
  15  -5 -13   69.56    8.42
  15  -5 -13   73.95    8.05
  15  -5 -13   88.26   17.63
  15   5 -13   68.75    8.39
  15   5 -13   67.78    7.49
  15   5 -13   62.82    9.55
  15  -5 -12  197.48   14.24
  15  -5 -12  180.77   14.02
  15   5 -12  202.94   14.38
  15  -5 -12  199.45   13.52
  15  -5 -12  183.15   14.50
  15   5 -12  166.56   14.02
  15  -5 -12  153.55   21.89
  15   5 -12  191.23   13.34
  15   5 -12  211.72   17.09
  15  -5 -11  175.33   13.29
  15   5 -11  174.61   13.16
  15  -5 -11  189.50   12.83
  15  -5 -11  160.78   12.66
  15  -5 -11  152.93   13.09
  15   5 -11  152.58   13.07
  15  -5 -11  122.24   18.74
  15   5 -11  175.34   15.26
  15  -5 -10   36.07    6.04
  15   5 -10   43.38    6.11
  15  -5 -10   47.55    6.10
  15  -5 -10   32.31    5.89
  15  -5 -10   19.78    8.89
  15   5 -10   33.42    6.89
  15  -5  -9    5.50    3.96
  15  -5  -9    7.08    3.49
  15   5  -9    4.68    3.42
  15  -5  -9    1.85    2.74
  15   5  -9    3.68    5.30
  15  -5  -9    4.95    4.04
  15  -5  -9    1.83    6.61
  15   5  -9    2.87    4.81
  15  -5  -8   95.40   10.12
  15  -5  -8   81.09    8.37
  15  -5  -8   77.86    8.60
  15   5  -8   86.97   11.85
  15  -5  -8   55.28   12.40
  15   5  -8  116.72   11.49
  15  -5  -8   81.66    8.78
  15   5  -8   82.87    8.64
  15  -5  -7  426.77   25.96
  15  -5  -7  369.59   23.67
  15  -5  -7  431.05   24.33
  15   5  -7  429.84   28.74
  15   5  -7  430.16   26.40
  15  -5  -6   22.38    6.08
  15  -5  -6   17.43    5.51
  15  -5  -6   17.30    5.04
  15   5  -6   15.39    5.71
  15  -5  -6   30.76    5.36
  15   5  -6   19.56    5.61
  15  -5  -5  930.10   50.65
  15  -5  -5  952.22   50.27
  15  -5  -5  893.46   47.80
  15   5  -5  926.21   52.61
  15   5  -5  937.57   49.83
  15  -5  -4  129.59   12.56
  15  -5  -4  125.95   11.32
  15   5  -4   99.57   12.89
  15   5  -4  123.94   11.69
  15  -5  -4  129.97   12.66
  15  -5  -3  425.38   26.43
  15  -5  -3  398.80   24.47
  15   5  -3  414.48   28.32
  15   5  -3  406.77   25.12
  15  -5  -3  420.99   26.67
  15  -5  -2    2.92    4.20
  15  -5  -2    0.95    3.68
  15   5  -2    5.91    4.84
  15  -5  -2   11.67    5.64
  15   5  -2    6.91    3.71
  15  -5  -1   21.29    5.86
  15  -5  -1   28.47    6.58
  15   5  -1   31.16    8.66
  15   5  -1   20.18    6.47
  15  -5  -1   28.84    8.19
  15   5  -1   25.28    5.28
  15  -5  -1   28.29    7.20
  15  -5   0   40.00    7.37
  15  -5   0   39.72    8.15
  15   5   0   49.53   10.66
  15  -5   0   61.78    8.66
  15   5   0   48.97    8.96
  15  -5   0   54.32    9.62
  15   5   0   57.85    6.95
  15  -5   0   51.23    9.56
  15  -5   1   12.68    5.50
  15  -5   1    4.76    4.69
  15   5   1    6.65    4.50
  15   5   1    1.52    5.70
  15   5   1    6.00    5.44
  15  -5   1   21.42    6.67
  15   5   1    6.82    2.88
  15  -5   1    1.19    4.86
  15  -5   2   47.31    8.02
  15   5   2   44.53    8.14
  15   5   2   64.73   11.65
  15   5   2   62.17    9.65
  15  -5   2   54.93    9.74
  15  -5   2   62.49   10.43
  15  -5   3    7.39    4.89
  15   5   3    1.96    4.62
  15  -5   3   -2.92    5.15
  15   5   3    4.69    6.40
  15   5   3    1.18    4.12
  15  -5   3    1.29    5.69
  15   5   3    8.61    4.07
  15   5   4  171.56   15.00
  15  -5   4  147.10   14.12
  15  -5   4  132.89   13.20
  15   5   4  134.16   16.94
  15   5   4  168.04   15.85
  15  -5   4  166.43   16.55
  15   5   4  173.89   14.22
  15   5   5  157.45   14.16
  15  -5   5  162.64   14.10
  15  -5   5  140.22   12.89
  15   5   5  147.55   17.33
  15   5   5  163.25   15.70
  15  -5   5  140.95   15.54
  15   5   5  165.37   14.03
  15  -5   6    2.99    3.89
  15   5   6    6.19    5.13
  15   5   6    4.76    6.31
  15  -5   6    3.68    4.88
  15   5   6    3.58    3.46
  15   5   7    6.67    5.03
  15   5   7    7.86    6.44
  15  -5   7    2.36    5.47
  15   5   7    3.62    4.20
  15  -5   7   -2.43    5.98
  15   5   8  136.29   17.09
  15  -5   8  144.56   15.49
  15   5   8  137.57   13.92
  15  -5   8  113.20   14.44
  15   5   9   26.33    8.48
  15  -5   9   27.38    6.97
  15   5   9   41.41    7.41
  15  -5   9   43.31    8.15
  15   5  10   38.16    8.91
  15  -5  10   38.13    7.52
  15   5  10   42.76    7.41
  15  -5  10   50.18    8.57
  15   5  11    9.89    5.62
  15  -5  11   22.43    6.15
  15   5  11   13.80    4.86
  15  -5  11    8.75    5.42
  15   5  12   20.57    7.01
  15  -5  12   29.13    5.99
  15   5  12   25.88    5.65
  15  -5  12   24.11    6.31
  15   5  13   86.39   10.38
  15  -5  13   81.39    8.87
  15   5  13   82.51    9.10
  15  -5  13   80.70    9.45
  15   5  14   59.09    8.15
  15  -5  14   62.77    7.49
  15   5  14   74.59    8.16
  15  -5  14   72.17    8.38
  15  -5  15   71.97    6.97
  15   5  15   62.58    7.06
  15  -5  15   65.72    7.54
  15   5  16   16.65    3.69
  15  -5  16    9.64    3.37
  15   5  17    0.37    2.04
  15  -5  18   21.63    3.10
  15   5  18   18.47    2.73
  15  -7 -28   54.50    7.13
  15   7 -27    7.47    4.00
  15  -7 -27    8.08    4.68
  15   7 -26   24.06    6.49
  15  -7 -26   36.69    8.05
  15  -7 -25   94.51    9.41
  15   7 -25   99.70   12.23
  15  -7 -25  103.04   13.53
  15  -7 -24  944.05   48.21
  15   7 -24  942.95   52.76
  15  -7 -24  966.17   55.51
  15  -7 -23  318.21   21.42
  15   7 -23  309.21   25.45
  15   7 -22  591.49   40.06
  15   7 -21   28.72    9.25
  15  -7 -20   21.37    4.61
  15   7 -20   28.52   10.74
  15  -7 -20   18.06   10.49
  15  -7 -19    1.24    2.87
  15   7 -19   -1.95    7.06
  15  -7 -19   -2.42    9.61
  15  -7 -18   61.05    7.13
  15   7 -18   50.74   12.19
  15  -7 -18   84.15   17.07
 -15  -7  17   96.49    9.98
  15  -7 -17  103.22    9.53
  15   7 -17  106.78   16.38
  15  -7 -17   97.86   10.12
  15  -7 -17   85.28   17.94
  15   7 -17   93.59    9.27
  15   7 -17  113.87   13.17
 -15  -7  16   63.71    7.96
  15  -7 -16   48.87    6.81
  15   7 -16   51.30   12.47
  15  -7 -16   49.45   15.63
  15   7 -16   49.95    6.56
  15   7 -16   66.08   10.35
 -15  -7  15    4.44    3.50
  15   7 -15   10.50    6.96
  15  -7 -15    3.29    3.25
  15  -7 -15    2.80   11.77
  15   7 -15    4.89    5.29
  15  -7 -14  826.25   41.25
  15   7 -14  877.38   51.06
  15  -7 -14  702.53   56.52
  15   7 -14  773.83   45.57
  15  -7 -13  210.09   14.98
  15   7 -13  213.56   20.85
  15  -7 -13  193.23   15.05
  15  -7 -13  180.77   25.76
  15  -7 -12  839.29   44.15
  15  -7 -12  877.43   43.46
  15   7 -12  886.84   51.53
  15  -7 -12  740.62   57.54
  15  -7 -11  210.15   15.01
  15  -7 -11  197.53   15.30
  15   7 -11  227.24   18.79
  15  -7 -10 1689.28   79.14
  15  -7 -10 1623.50   94.91
  15   7 -10 1687.10   83.28
  15  -7  -9   85.46   10.84
  15  -7  -9  103.82   10.19
  15  -7  -9   82.82   16.48
  15   7  -9   89.84   11.78
  15  -7  -8  263.41   19.35
  15  -7  -8  256.65   17.55
  15   7  -8  243.07   21.98
  15  -7  -8  227.11   25.08
  15   7  -8  192.57   18.27
  15  -7  -7    1.03    4.35
  15  -7  -7    7.40    4.13
  15   7  -7    4.39    6.16
  15  -7  -7    5.78    7.20
  15   7  -7    6.77    5.23
  15  -7  -6  161.67   14.57
  15  -7  -6  132.40   12.32
  15   7  -6  133.72   16.13
  15  -7  -6  110.81   16.35
  15   7  -6  135.13   14.11
  15  -7  -5   44.93    8.13
  15   7  -5   49.65    8.57
  15  -7  -4   94.98   10.82
  15   7  -4  103.21   14.07
  15   7  -4  112.87   12.52
  15  -7  -4  100.16   11.76
  15  -7  -3    3.10    4.23
  15  -7  -3    1.83    4.14
  15   7  -3    6.03    6.51
  15   7  -3    3.18    4.58
  15  -7  -2   12.13    5.11
  15  -7  -2   13.17    5.18
  15   7  -2   19.66    7.18
  15   7  -2   20.51    5.98
  15  -7  -1   61.73    9.50
  15  -7  -1   76.73   10.19
  15   7  -1  104.60   14.14
  15   7  -1   96.64   10.80
  15  -7   0  394.99   25.71
  15   7   0  410.95   29.70
  15   7   0  377.51   24.76
  15  -7   0  355.08   24.36
  15  -7   1  118.63   12.75
  15   7   1  116.44   15.30
  15   7   1  114.68   11.55
  15  -7   2   53.66    8.89
  15  -7   2   60.89    8.46
  15   7   2   35.66   10.57
  15   7   2   57.26   11.02
  15  -7   3  101.02   12.40
  15  -7   3  100.12   10.55
  15   7   3  122.71   17.01
  15   7   3  132.64   15.24
  15  -7   4  200.45   17.73
  15   7   4  213.14   21.82
  15   7   4  201.04   19.45
  15  -7   5   70.27   10.49
  15   7   5   74.43   13.22
  15   7   5   81.18   11.96
  15  -7   6    4.27    5.26
  15   7   6    3.38    6.72
  15   7   6    6.39    5.66
  15  -7   7    3.06    4.30
  15   7   7    3.25    6.65
  15   7   7    9.41    6.01
  15  -7   8   20.14    6.02
  15   7   8   18.39    7.70
  15   7   8    3.12    4.29
  15   7   8   14.96    3.95
  15  -7   9   63.97    8.81
  15   7   9   59.51   11.30
  15   7   9   56.04    6.66
  15  -7  10   17.88    5.18
  15   7  10   16.62    7.01
  15   7  10   13.86    3.70
  15  -7  11    8.08    4.02
  15   7  11   11.21    5.93
  15   7  11    6.81    2.84
  15  -7  12   15.05    4.33
  15   7  12   18.01    6.07
  15  -7  13   38.94    5.55
  15   7  13   41.41    6.74
  15  -7  14    0.49    2.54
  15   7  14   -0.29    0.68
  15  -7  15    1.19    2.17
  15  -7  16   34.32    3.84
  15  -9 -25    0.69    3.27
  15  -9 -24   24.01    4.34
  15   9 -24   16.80    4.36
  15  -9 -24   31.47    6.84
  15  -9 -23   79.17    8.29
  15   9 -23   51.96    8.00
  15  -9 -22    8.21    4.33
  15   9 -22    7.27    5.12
  15  -9 -21   21.72    5.73
  15   9 -21   27.43    7.86
  15  -9 -20  315.18   21.18
  15  -9 -20  287.30   17.72
  15   9 -20  268.06   23.67
  15  -9 -20  293.51   26.09
  15  -9 -19    4.82    3.39
  15   9 -19    3.22    6.78
  15  -9 -19    5.57    7.81
  15  -9 -18  962.13   48.12
  15   9 -18  973.07   58.21
  15  -9 -18 1053.89   61.91
  15  -9 -17  270.82   17.76
  15   9 -17  287.83   25.98
  15  -9 -17  268.57   27.93
  15  -9 -16  775.66   40.98
  15   9 -16  861.23   52.06
  15  -9 -16  848.99   56.17
  15  -9 -15   42.41    6.51
  15   9 -15   30.87    9.74
  15  -9 -15   39.57   13.81
  15  -9 -14   83.60    9.05
  15   9 -14   80.17   13.74
  15  -9 -14   63.79   16.50
  15  -9 -13   13.02    4.79
  15   9 -13   27.69    9.02
  15  -9 -13   15.51   11.72
  15  -9 -12  161.61   14.39
  15  -9 -12  162.63   13.09
  15   9 -12  151.77   17.97
  15  -9 -12  112.93   20.26
  15  -9 -11   29.08    7.00
  15  -9 -11   16.84    4.87
  15   9 -11   26.37    8.90
  15  -9 -11   17.45   11.06
  15  -9 -10  202.80   16.09
  15  -9 -10  170.93   13.92
  15   9 -10  165.17   18.49
  15  -9 -10  158.57   22.58
  15  -9  -9   12.81    5.09
  15   9  -9   20.80    8.20
  15  -9  -9   17.23    5.42
  15  -9  -9   37.49   12.25
  15  -9  -8    8.99    5.20
  15  -9  -8    8.51    5.01
  15  -9  -8    2.01    7.26
  15  -9  -7  194.26   16.55
  15   9  -7  210.33   21.35
  15  -9  -7  187.23   21.42
  15  -9  -6  493.55   29.20
  15   9  -6  527.06   35.76
  15  -9  -5    0.99    4.07
  15   9  -5    3.45    6.66
  15   9  -5    1.60    5.96
  15  -9  -5    1.38    4.82
  15   9  -4  399.00   30.78
  15   9  -4  376.05   28.88
  15  -9  -4  338.49   23.84
  15   9  -3  184.24   21.02
  15   9  -3  201.44   20.35
  15  -9  -3  220.93   16.91
  15   9  -2  109.69   15.47
  15   9  -2   82.33   12.87
  15  -9  -2   97.65   10.81
  15   9  -1   -1.74    7.12
  15   9  -1    3.13    6.41
  15   9   0    3.46    7.27
  15   9   0    7.68    6.30
  15   9   1    1.71    6.60
  15   9   1    7.52    7.26
  15   9   2   13.39    8.09
  15   9   2    7.27    6.29
  15   9   3    8.15    7.55
  15   9   3    2.78    5.70
  15  -9   4  158.50   13.40
  15   9   4  179.13   17.54
  15  -9   5   51.27    7.25
  15   9   5   67.15   10.74
  15  -9   6  115.48   10.61
  15   9   6  107.26   12.71
  15  -9   7   24.83    5.13
  15   9   7   22.17    6.25
  15  -9   8  108.48    9.65
  15   9   8  106.51   12.81
  15   9   8  115.15   11.29
  15  -9   9   22.91    4.19
  15   9   9   35.53    7.54
  15  -9  10  139.98   10.05
  15   9  10  158.58   13.74
  15  -9  11   28.38    3.75
  15   9  11   27.99    5.78
  15   9  12  349.52   20.16
  15 -11 -20   26.59    4.90
  15 -11 -20   28.38    5.63
  15 -11 -19   42.16    6.65
  15  11 -19   33.97    5.62
  15 -11 -19   39.19    7.30
  15 -11 -18   45.36    7.23
  15  11 -18   32.65    6.81
  15 -11 -18   43.31    8.25
  15  11 -17  106.20   12.53
  15 -11 -17   94.10   12.70
  15  11 -16    5.49    4.67
  15  11 -16   -5.01    6.05
  15 -11 -16    7.85    6.31
  15 -11 -15   34.71    6.74
  15  11 -15   27.09    7.64
  15  11 -15   28.77    8.55
  15 -11 -15   21.72    8.12
  15 -11 -14   19.76    5.32
  15  11 -14   15.46    7.28
  15  11 -14   14.43    7.40
  15 -11 -14   12.52    7.12
  15 -11 -13  162.06   13.22
  15  11 -13  135.00   15.79
  15  11 -13  110.83   15.23
  15 -11 -13  138.73   17.80
  15 -11 -12  315.97   20.27
  15  11 -12  310.99   25.19
  15  11 -12  303.91   25.19
  15 -11 -12  231.81   24.45
  15 -11 -11  532.55   29.16
  15  11 -11  483.59   33.96
  15  11 -11  480.26   33.72
  15 -11 -11  430.81   34.72
  15  11 -10  187.63   19.23
  15  11 -10  206.00   19.58
  15 -11 -10  177.99   20.01
  15 -11 -10  199.65   15.18
  15  11  -9   87.07   12.94
  15  11  -9   97.13   13.05
  15 -11  -9   99.19    9.95
  15 -11  -8   38.31    6.50
  15  11  -8   62.91   11.46
  15  11  -8   69.06   11.11
  15 -11  -8   38.05    9.25
  15 -11  -7   23.03    5.22
  15  11  -7   15.45    7.31
  15  11  -7   19.84    7.12
  15 -11  -7    2.25    3.47
  15 -11  -6   -0.68    3.33
  15  11  -6    4.13    6.65
  15  11  -6   -1.29    4.99
  15  11  -5   86.43   12.36
  15 -11  -5   62.04    7.42
  15  11  -4    2.65    6.00
  15  11  -3    6.47    6.12
  15  11  -2   22.67    7.19
  15  11  -2   35.50    8.08
  15  11  -1   41.53    9.09
  15  11  -1   64.32   10.09
  15  11   0   58.89    9.94
  15  11   0   54.14    9.05
  15  11   1  303.59   22.31
  15  11   1  269.88   20.76
  15  11   2  104.04   12.47
  15  11   2  129.79   12.87
  15  11   3  185.54   16.41
  15  11   3  209.05   16.35
  15  11   4   35.13    6.92
  15  11   4   40.10    6.76
  15  11   5   50.63    7.50
  15  11   5   50.39    6.85
  15  11   6   34.11    5.96
  15  11   7  206.08   14.11
  15  11   8   39.10    5.07
  15  13  -7  401.33   23.22
  15  13  -6   18.33    4.32
  15  13  -5  200.76   13.80
  15  13  -4    1.64    2.36
  16   0 -32  352.44   19.99
 -16   0  31    0.83    2.12
  16   0 -31    0.65    3.08
  16   0 -30 1082.65   54.48
 -16   0  30 1092.92   51.64
 -16   0  29    2.32    3.06
  16   0 -29    2.75    3.64
  16   0 -28 1239.44   62.54
 -16   0  28 1198.79   58.27
 -16   0  27   -1.41    3.53
  16   0 -27   -1.13    5.00
 -16   0  26    7.42    3.94
  16   0 -25   -1.73    7.10
 -16   0  25    8.45    3.49
 -16   0  24    5.05    3.69
  16   0 -24   -1.72    3.62
 -16   0  24    3.12    3.76
 -16   0  23    0.73    2.98
  16   0 -23   -0.85    3.69
 -16   0  23    3.90    4.52
  16   0 -22    3.33    3.41
  16   0 -21   -5.38    8.11
  16   0 -21   -0.80    3.35
  16   0 -20 2061.64  103.54
  16   0 -20 1981.39   93.01
  16   0 -19    1.72    6.43
  16   0 -19    7.17    4.04
  16   0 -18 3058.78  142.47
  16   0 -18 2974.13  135.13
  16   0 -18 3333.62  138.80
  16   0 -17    4.79    6.36
  16   0 -17    2.61    2.95
  16   0 -17    3.90    4.61
  16   0 -17    4.73    4.85
  16   0 -16 1149.47   59.43
  16   0 -16 1125.85   64.40
  16   0 -16 1245.86   61.94
  16   0 -15   -1.41    5.43
  16   0 -15    3.60    4.07
  16   0 -15    1.07    4.25
  16   0 -14  586.24   33.73
  16   0 -14  614.05   38.01
  16   0 -14  624.19   35.65
  16   0 -14  577.61   34.78
  16   0 -13    1.89    3.54
  16   0 -13    1.15    4.16
  16   0 -13   -2.51    3.70
  16   0 -13   -0.93    3.81
  16   0 -12   10.13    4.71
  16   0 -12    4.06    4.28
  16   0 -12    8.87    3.98
  16   0 -12    7.72    3.81
  16   0 -11    5.34    4.21
  16   0 -11    1.57    3.03
  16   0 -11    1.57    3.30
  16   0 -10 1593.15   70.31
  16   0 -10 1430.53   70.22
  16   0 -10 1552.78   70.12
  16   0  -9    8.95    3.40
  16   0  -9    3.01    3.34
  16   0  -9    8.18    3.70
  16   0  -8  323.60   19.36
  16   0  -8  263.26   18.71
  16   0  -8  288.95   17.58
  16   0  -7    7.08    3.28
  16   0  -7    1.49    3.06
  16   0  -7   -1.94    2.25
  16   0  -6  476.00   26.34
  16   0  -6  450.68   26.24
  16   0  -6  414.64   22.69
  16   0  -5    1.70    3.57
  16   0  -5    7.54    3.26
  16   0  -5    3.01    3.18
  16   0  -5    3.90    2.00
  16   0  -4  127.93   12.61
  16   0  -4  150.63   13.17
  16   0  -4  143.83   12.48
  16   0  -4  148.83   12.47
  16   0  -4  162.97   13.04
  16   0  -3   -0.86    3.97
  16   0  -3    9.50    4.72
  16   0  -3   -1.53    3.22
  16   0  -3    2.24    3.06
  16   0  -2  106.31   11.26
  16   0  -2  103.29   11.01
  16   0  -2  111.40   10.82
  16   0  -2  119.10   11.01
  16   0  -1    0.88    3.78
  16   0  -1   -1.81    4.36
  16   0  -1    0.79    2.94
  16   0  -1   -0.80    3.44
  16   0   0  506.62   28.77
  16   0   0  430.16   27.06
  16   0   0  443.00   27.32
  16   0   1    0.91    3.72
  16   0   1    4.72    3.32
  16   0   1    0.88    3.71
  16   0   2    4.64    3.91
  16   0   2    2.87    4.70
  16   0   2    1.86    4.49
  16   0   2    0.70    2.94
  16   0   3    3.79    4.20
  16   0   3    1.90    4.32
  16   0   3    4.36    3.58
  16   0   3    6.82    4.98
  16   0   4  115.97   12.24
  16   0   4  124.51   12.31
  16   0   4  115.36   12.81
  16   0   4  126.72   11.33
  16   0   4  119.88   12.67
  16   0   5    0.98    3.79
  16   0   5   12.37    3.42
  16   0   5    7.78    4.69
  16   0   5   -1.03    4.35
  16   0   5   12.49    3.92
  16   0   5    4.68    3.77
  16   0   6  191.43   16.57
  16   0   6  171.37   14.49
  16   0   6  219.34   18.10
  16   0   6  223.76   16.10
  16   0   6  245.89   18.40
  16   0   6  225.61   16.18
  16   0   7    0.98    4.03
  16   0   7   -3.34    6.18
  16   0   7   -4.88    4.00
  16   0   7    1.03    4.47
  16   0   7    0.81    3.81
  16   0   8    0.97    4.22
  16   0   8    6.56    5.71
  16   0   8    8.95    4.41
  16   0   8    8.07    4.64
  16   0   9    0.94    4.06
  16   0   9   11.37    5.64
  16   0   9   -0.81    3.30
  16   0   9   -1.59    4.00
  16   0  10    5.41    4.37
  16   0  10    5.52    3.59
  16   0  10    3.89    3.85
  16   0  11   -2.54    3.67
  16   0  11    7.47    4.43
  16   0  11    4.49    4.22
  16   0  12  390.76   24.32
  16   0  12  354.76   24.60
  16   0  13    5.62    4.08
  16   0  13    5.06    4.83
  16   0  13   11.98    4.51
  16   0  14 1052.96   52.66
  16   0  14 1154.01   55.12
  16   0  15    1.01    2.66
  16   0  15    5.68    4.17
  16   0  16   -0.38    0.89
  16   0  16  137.94    9.63
  16   0  17   -1.07    2.57
  16   0  18   26.13    4.10
  16   0  18   26.37    4.30
  16   0  19   -0.31    1.64
  16   0  19   -0.64    1.82
  16  -2 -32    0.40    2.14
  16   2 -32    0.42    2.19
  16  -2 -31    1.66    2.51
  16   2 -31    0.57    2.96
  16  -2 -30  126.55   11.25
  16   2 -30  112.35   10.77
 -16   2  30  127.78    9.78
 -16  -2  30  124.90    9.45
 -16   2  29   11.33    3.63
 -16  -2  29   11.78    3.58
  16  -2 -29   14.74    4.90
  16   2 -29   13.19    4.80
 -16   2  28   42.72    6.55
 -16  -2  28   51.49    6.60
  16  -2 -28   60.13   10.68
  16  -2 -28   52.31    8.28
  16   2 -28   45.85    7.89
  16  -2 -27  128.65   13.35
  16   2 -27  139.35   13.71
  16  -2 -27  110.51   15.10
 -16   2  27  109.33   10.56
 -16  -2  27  122.99   10.86
  16  -2 -26  119.64   13.27
  16   2 -26  114.23   13.39
  16  -2 -26  119.64   16.54
 -16   2  26  122.96   11.38
 -16  -2  26  121.42   11.03
  16  -2 -25  511.27   37.16
  16  -2 -25  532.84   32.28
  16   2 -25  480.03   31.47
 -16   2  25  513.72   28.87
 -16  -2  25  465.15   28.16
  16  -2 -24  622.81   37.49
  16   2 -24  641.86   38.14
 -16   2  24  637.72   34.62
 -16  -2  24  605.42   33.93
 -16  -2  23  525.47   31.39
  16  -2 -23  575.23   35.09
  16   2 -23  564.56   32.61
  16   2 -23  578.57   35.73
 -16   2  23  579.82   32.20
 -16  -2  23  608.00   32.22
  16   2 -23  585.82   35.61
  16  -2 -22  173.63   16.27
  16   2 -22  169.92   14.63
  16   2 -22  199.35   17.72
  16   2 -22  200.14   17.77
  16  -2 -21  653.38   46.45
  16  -2 -21  679.87   38.85
  16   2 -21  703.98   39.92
  16   2 -21  641.70   36.00
  16   2 -21  663.76   39.90
  16  -2 -20    9.99    8.84
  16  -2 -20    5.49    3.19
  16   2 -20    7.72    3.96
  16  -2 -20   13.22    5.39
  16   2 -20   12.18    5.87
  16   2 -20    9.68    5.36
  16  -2 -19   29.34   10.23
  16  -2 -19   31.85    5.40
  16   2 -19   21.35    5.15
  16  -2 -19   23.44    5.76
  16   2 -19   27.61    6.50
  16  -2 -18   25.66    6.64
  16  -2 -18   22.82    9.59
  16  -2 -18   22.94    4.43
  16   2 -18   21.78    4.89
  16  -2 -18   20.70    5.75
  16   2 -18   24.36    6.42
  16  -2 -17   32.49    7.25
  16  -2 -17   18.37    8.73
  16  -2 -17   18.37    4.09
  16   2 -17   15.49    4.25
  16  -2 -17   14.57    5.42
  16   2 -17   25.22    6.68
  16   2 -17   37.70    8.00
  16  -2 -16   93.64   11.14
  16  -2 -16   92.95   10.45
  16   2 -16   86.37   10.33
  16  -2 -16   96.42    8.76
  16  -2 -16   84.78   14.51
  16   2 -16  108.75   12.34
  16  -2 -15   14.60    5.38
  16  -2 -15   23.53    9.07
  16  -2 -15   20.34    4.19
  16  -2 -15   22.44    5.46
  16   2 -15   19.62    5.44
  16   2 -15   19.21    5.98
  16  -2 -14   25.64    6.48
  16  -2 -14   23.71    8.13
  16  -2 -14   20.59    4.19
  16  -2 -14   17.68    5.29
  16   2 -14   20.63    5.46
  16   2 -14   29.72    7.05
  16  -2 -13  224.61   17.95
  16  -2 -13  233.78   17.30
  16   2 -13  248.59   17.80
  16  -2 -13  226.36   21.78
  16  -2 -13  236.68   15.15
  16   2 -13  282.38   19.58
  16  -2 -12  208.30   16.49
  16  -2 -12  185.00   15.07
  16   2 -12  193.23   15.33
  16  -2 -12  166.63   17.97
  16  -2 -11  453.85   28.72
  16  -2 -11  526.24   27.74
  16   2 -11  544.31   27.99
  16  -2 -11  443.55   27.43
  16   2 -11  444.89   27.53
  16  -2 -11  424.28   30.60
  16   2 -11  498.02   29.09
  16  -2 -10  809.52   40.39
  16   2 -10  829.33   40.58
  16   2 -10  776.53   42.36
  16  -2 -10  670.78   39.88
  16   2 -10  749.26   40.74
  16   2 -10  917.19   42.91
  16  -2 -10  741.56   41.76
  16  -2  -9  208.39   14.52
  16   2  -9  201.33   14.52
  16   2  -9  178.58   15.51
  16  -2  -9  180.70   14.39
  16   2  -9  174.60   14.36
  16   2  -9  209.09   15.43
  16  -2  -9  189.04   15.76
  16  -2  -8   74.25    9.42
  16  -2  -8   98.96    9.23
  16   2  -8   89.81    9.06
  16   2  -8   73.27    9.59
  16  -2  -8   72.66    8.61
  16   2  -8   76.89    8.94
  16   2  -8  100.43    9.92
  16  -2  -8   76.86    9.72
  16  -2  -7   60.99    8.56
  16  -2  -7   57.36    7.18
  16   2  -7   61.27    7.47
  16  -2  -7   68.79    8.62
  16   2  -7   45.01    7.83
  16  -2  -7   66.29    8.14
  16   2  -7   52.79    7.50
  16   2  -7   58.79    7.52
  16  -2  -6  172.54   13.74
  16   2  -6  185.17   14.25
  16  -2  -6  172.93   14.74
  16   2  -6  175.89   15.10
  16  -2  -6  184.77   14.34
  16   2  -6  183.17   14.66
  16  -2  -6  180.13   14.85
  16   2  -6  237.06   14.72
  16  -2  -6  208.02   16.19
  16  -2  -5   46.24    7.92
  16  -2  -5   46.25    7.42
  16   2  -5   53.73    8.03
  16  -2  -5   43.42    6.53
  16  -2  -5   38.25    6.77
  16   2  -5   53.59    7.29
  16  -2  -5   48.62    7.57
  16   2  -5   67.06    7.02
  16   2  -5   55.53    7.14
  16  -2  -4  183.23   15.30
  16   2  -4  173.20   14.94
  16  -2  -4  184.66   14.56
  16   2  -4  185.25   14.67
  16  -2  -4  180.68   15.38
  16   2  -4  224.66   13.58
  16  -2  -4  201.10   14.58
  16   2  -3   43.56    7.29
  16  -2  -3   65.43    8.75
  16   2  -3   61.42    8.61
  16  -2  -3   59.75    7.78
  16   2  -3   59.54    7.96
  16  -2  -3   57.03    8.39
  16   2  -3   57.21    5.98
  16  -2  -3   62.84    7.95
  16   2  -2  292.79   19.67
  16  -2  -2  288.52   20.11
  16   2  -2  240.80   18.67
  16  -2  -2  279.06   18.85
  16   2  -2  314.99   19.67
  16  -2  -2  302.00   20.59
  16   2  -2  269.31   18.11
  16  -2  -2  265.84   18.78
  16   2  -1   31.34    6.29
  16  -2  -1   43.68    7.55
  16   2  -1   31.08    6.47
  16  -2  -1   30.26    5.85
  16   2  -1   48.82    7.32
  16  -2  -1   41.46    7.48
  16   2  -1   30.10    5.65
  16  -2  -1   34.67    6.55
  16   2   0  352.68   22.58
  16  -2   0  375.05   23.92
  16   2   0  307.44   21.77
  16  -2   0  360.92   23.59
  16   2   0  340.29   22.41
  16   2   0  366.16   24.54
  16  -2   0  351.43   23.54
  16   2   0  349.78   21.98
  16  -2   0  318.65   22.37
  16   2   1    8.45    4.48
  16  -2   1    5.41    3.46
  16   2   1   14.00    3.97
  16  -2   1    8.85    5.03
  16   2   1    6.31    4.55
  16   2   1    1.62    3.51
  16  -2   1    9.44    5.08
  16   2   2   53.16    8.18
  16   2   2   63.36    7.42
  16  -2   2   50.28    8.44
  16   2   2   52.33    8.62
  16   2   2   56.54    7.00
  16   2   2   51.47    7.71
  16  -2   2   46.07    6.72
  16  -2   2   60.36    8.93
  16   2   3    4.34    3.75
  16   2   3    0.71    3.07
  16  -2   3    4.92    4.66
  16   2   3   -3.26    6.03
  16  -2   3    5.23    5.25
  16   2   3    2.17    4.31
  16   2   3    0.90    3.68
  16  -2   3    3.18    4.90
  16  -2   3    1.44    2.87
  16   2   4  379.88   23.86
  16  -2   4  350.27   23.80
  16   2   4  345.70   24.78
  16  -2   4  367.23   24.91
  16   2   4  333.95   24.91
  16  -2   4  344.21   22.34
  16   2   4  381.42   22.72
  16   2   4  358.88   23.98
  16  -2   4  416.84   26.40
  16   2   5  169.39   15.13
  16  -2   5  168.71   15.35
  16   2   5  172.52   16.50
  16  -2   5  178.21   16.56
  16  -2   5  209.25   15.29
  16   2   5  185.92   14.72
  16  -2   5  188.43   17.72
  16   2   5  151.94   15.08
  16  -2   5  200.43   17.58
  16   2   6  320.41   22.11
  16  -2   6  263.64   20.69
  16   2   6  330.18   23.99
  16  -2   6  258.22   22.18
  16  -2   6  297.70   21.01
  16   2   6  300.20   20.98
  16  -2   6  310.58   24.29
  16   2   6  319.70   22.91
  16   2   7  236.97   17.92
  16  -2   7  199.82   16.12
  16   2   7  237.09   19.60
  16  -2   7  266.30   20.04
  16  -2   7  276.99   18.34
  16   2   7  274.17   18.10
  16  -2   7  256.15   20.40
  16   2   7  267.91   19.46
  16  -2   7  310.73   18.88
  16   2   8 1113.80   50.71
  16   2   8  981.00   51.91
  16  -2   8  944.74   51.27
  16  -2   8 1033.85   49.62
  16   2   8 1130.88   50.58
  16  -2   8 1041.73   53.46
  16   2   8 1035.89   51.51
  16  -2   8 1109.70   50.27
  16   2   8 1122.04   50.49
  16   2   9   56.16    8.29
  16   2   9  129.59   12.98
  16  -2   9  137.60   12.72
  16  -2   9   90.01    9.78
  16   2   9   69.47    8.91
  16  -2   9   85.39    9.64
  16  -2   9   90.86   11.69
  16   2   9   67.45    9.95
  16  -2   9  103.67   12.28
  16   2   9   67.21    8.93
  16   2  10  113.76   11.54
  16  -2  10  143.03   12.59
  16   2  10  137.84   12.54
  16  -2  10  149.18   14.84
  16   2  10  134.41   13.41
  16  -2  10  155.97   12.80
  16   2  10  149.33   12.77
  16  -2  11   72.96    8.23
  16  -2  11   55.25    8.69
  16   2  11   43.59    7.57
  16  -2  12    0.91    3.83
  16  -2  12   -3.68    4.35
  16   2  12   -0.86    4.45
  16  -2  13    4.14    3.84
  16  -2  13    3.39    4.18
  16   2  13   12.95    5.24
  16  -2  14   35.97    6.21
  16  -2  14   27.62    5.95
  16  -2  14   22.19    5.70
  16  -2  15   27.09    5.24
  16  -2  15   34.05    6.01
  16  -2  15   27.52    5.59
  16  -2  16    2.58    2.59
  16  -2  16    2.33    2.86
  16  -2  16   -0.61    3.00
  16  -2  17   87.90    7.39
  16  -2  17   94.66    8.14
  16  -2  17  104.43    8.57
  16  -2  18  148.58   10.01
  16  -2  18  162.08   10.50
  16   2  18  165.62   10.50
  16   2  19  258.30   13.86
  16  -2  19  258.38   13.75
  16  -4 -30    0.39    1.20
  16   4 -30    6.68    2.98
  16  -4 -29  661.69   33.11
  16   4 -29  627.15   33.15
  16  -4 -29  629.55   36.22
 -16   4  28    8.51    3.46
 -16  -4  28    6.82    3.02
  16  -4 -28    1.14    5.18
  16  -4 -28    6.27    4.15
  16   4 -28    1.40    3.96
  16  -4 -27   87.16    9.41
  16   4 -27   71.70    8.87
  16  -4 -27   57.86   10.85
 -16   4  27   75.67    7.88
 -16  -4  27   72.08    7.67
 -16   4  26   -1.90    3.61
 -16  -4  26    0.62    3.10
  16  -4 -26   -3.08    6.97
  16  -4 -26    0.93    4.81
  16   4 -26    0.89    4.22
  16  -4 -25  109.09   12.10
  16   4 -25   96.04   11.38
  16  -4 -25  119.93   16.30
 -16   4  25  101.06   10.05
 -16  -4  25  106.43   10.04
 -16   4  24   12.05    4.40
 -16  -4  24    9.75    3.94
  16  -4 -24   15.65    5.89
  16   4 -24    7.05    4.79
  16  -4 -23  472.23   29.74
  16   4 -23  465.93   29.35
 -16   4  23  463.91   26.71
 -16  -4  23  450.53   26.50
  16  -4 -22   41.88    7.73
  16  -4 -22   40.82    8.04
  16   4 -22   31.32    7.69
 -16   4  22   37.42    6.52
 -16  -4  22   34.66    6.15
  16   4 -22   31.67    7.49
  16  -4 -21   71.87   10.23
  16  -4 -21   74.42    8.62
  16  -4 -21   42.63   12.35
  16   4 -21   78.76    9.28
  16  -4 -21   71.56    9.91
  16   4 -21   65.33    9.73
 -16   4  21   69.58    8.22
 -16  -4  21   68.51    8.31
  16   4 -21   65.26   10.25
  16  -4 -20   -1.07    4.37
  16  -4 -20    2.24    3.22
  16  -4 -20    2.17    7.82
  16  -4 -20    2.97    5.06
  16   4 -20   -3.30    3.28
  16   4 -20   -1.02    5.01
  16   4 -20    6.15    4.90
  16  -4 -19  315.36   22.07
  16  -4 -19  265.21   19.75
  16   4 -19  250.28   19.73
  16  -4 -19  264.34   18.11
  16  -4 -19  282.96   27.96
  16   4 -19  268.37   18.75
  16   4 -19  285.88   22.15
  16  -4 -18    3.23    4.77
  16  -4 -18    2.16    3.19
  16  -4 -18   -2.17    7.83
  16  -4 -18    2.78    3.90
  16   4 -18    2.89    4.16
  16   4 -18    2.30    3.39
  16   4 -18    2.43    5.62
  16  -4 -17 1033.20   51.63
  16  -4 -17  896.31   48.73
  16   4 -17  897.16   49.14
  16  -4 -17  933.38   47.30
  16  -4 -17 1046.81   61.48
  16   4 -17  944.84   47.64
  16  -4 -16   -1.04    4.72
  16  -4 -16    0.69    2.99
  16  -4 -16    4.18    9.46
  16  -4 -16    1.75    3.77
  16   4 -16   -3.62    4.71
  16   4 -16    5.65    3.61
  16  -4 -15   55.04    8.97
  16  -4 -15   60.76    7.29
  16  -4 -15   46.71   12.28
  16  -4 -15   50.37    7.15
  16   4 -15   61.14    7.31
  16   4 -15   42.27    7.10
  16   4 -15   45.29    8.55
  16  -4 -14   17.91    5.81
  16  -4 -14   19.21    4.01
  16  -4 -14    9.22    3.99
  16  -4 -14   16.19    4.52
  16  -4 -14    7.85    6.87
  16  -4 -14   19.21    5.40
  16   4 -14   24.07    5.49
  16   4 -14   22.26    4.61
  16   4 -14   17.01    6.11
  16  -4 -13   11.68    5.21
  16  -4 -13   20.59    4.13
  16  -4 -13   28.65    5.56
  16   4 -13   24.99    5.18
  16  -4 -13   22.11    4.87
  16  -4 -13   16.87    8.13
  16  -4 -13   13.92    4.48
  16   4 -13   19.36    5.45
  16   4 -13   18.47    5.92
  16  -4 -12   27.69    6.24
  16  -4 -12   21.63    5.04
  16   4 -12   27.01    5.47
  16  -4 -12   35.60    5.04
  16  -4 -12   29.36    5.42
  16  -4 -12   28.30    9.59
  16  -4 -12   32.91    5.93
  16   4 -12   29.80    5.95
  16   4 -12   35.66    7.07
  16  -4 -11   34.92    7.19
  16  -4 -11   40.41    5.57
  16  -4 -11   25.25    5.50
  16   4 -11   34.45    6.08
  16  -4 -11   32.29    5.91
  16  -4 -11   31.35    9.66
  16   4 -11   39.09    6.72
  16   4 -11   27.81    6.09
  16  -4 -10   21.59    5.57
  16  -4 -10   19.32    4.82
  16   4 -10   16.52    4.76
  16  -4 -10   22.29    4.48
  16  -4 -10   13.91    4.60
  16   4 -10   19.24    5.01
  16  -4 -10   16.64    7.20
  16   4 -10   15.78    5.43
  16  -4  -9   33.83    5.47
  16  -4  -9   49.81    8.11
  16  -4  -9   40.26    6.54
  16   4  -9   30.17    5.66
  16  -4  -9   37.25    6.54
  16   4  -9   33.15    6.29
  16   4  -9   41.37    7.32
  16  -4  -8    5.68    3.98
  16  -4  -8    2.66    3.83
  16  -4  -8    9.05    3.71
  16   4  -8    3.78    2.93
  16   4  -8    2.27    4.78
  16  -4  -8    6.74    3.55
  16   4  -8    1.55    3.60
  16   4  -8    5.22    4.03
  16  -4  -7  608.40   33.49
  16  -4  -7  570.90   31.58
  16   4  -7  623.44   32.30
  16   4  -7  652.49   36.11
  16   4  -7  615.51   32.99
  16  -4  -7  587.22   31.71
  16   4  -7  607.99   32.03
  16  -4  -6    9.10    4.74
  16   4  -6    2.15    4.29
  16  -4  -6    4.43    3.36
  16   4  -6    6.05    3.87
  16   4  -6    8.83    4.19
  16  -4  -5  132.65   12.77
  16   4  -5  116.50   11.43
  16  -4  -5  112.12   11.13
  16   4  -5  139.18   12.02
  16   4  -5  135.10   13.78
  16   4  -5  157.88   12.41
  16  -4  -5  140.02   13.63
  16  -4  -4    4.96    4.60
  16  -4  -4   -1.87    4.15
  16  -4  -4    2.97    3.45
  16   4  -4    7.53    3.79
  16   4  -4    6.26    4.16
  16   4  -4   10.73    3.92
  16  -4  -3  846.14   42.62
  16  -4  -3  768.30   39.89
  16   4  -3  758.03   39.84
  16   4  -3  783.17   42.63
  16   4  -3  798.85   39.21
  16  -4  -3  866.41   42.46
  16  -4  -3  741.97   41.92
  16  -4  -2    4.97    4.30
  16  -4  -2    7.84    4.54
  16  -4  -2    0.78    3.26
  16   4  -2    1.56    3.45
  16   4  -2   -1.03    4.47
  16  -4  -2    2.23    5.38
  16  -4  -2    0.96    4.06
  16   4  -2    2.44    2.76
  16  -4  -1  375.96   26.03
  16   4  -1  405.68   29.17
  16   4  -1  351.24   25.61
  16  -4  -1  419.73   27.64
  16   4  -1  345.50   21.71
  16  -4  -1  385.74   25.93
  16  -4   0   73.29   10.54
  16   4   0   76.18   12.11
  16   4   0   62.80    9.75
  16  -4   0   83.51   11.72
  16  -4   0   55.26    9.70
  16  -4   1 1380.96   70.18
  16   4   1 1631.69   66.53
  16  -4   1 1281.36   68.26
  16   4   1 1307.84   68.96
  16  -4   1 1351.23   68.80
  16   4   1 1323.93   72.68
  16  -4   1 1412.79   71.42
  16   4   1 1349.06   66.45
  16  -4   1 1364.13   70.42
  16  -4   2    5.60    5.08
  16  -4   2   15.85    5.50
  16   4   2    9.46    4.97
  16  -4   2   14.61    6.05
  16   4   2   -2.83    4.73
  16  -4   2    1.23    5.32
  16   4   2    3.20    4.09
  16  -4   2    4.63    5.00
  16  -4   3  472.88   30.83
  16   4   3  538.82   32.87
  16  -4   3  553.42   32.84
  16   4   3  542.11   35.97
  16  -4   3  565.89   34.78
  16   4   3  539.25   31.06
  16  -4   3  544.80   34.22
  16  -4   4    4.70    4.90
  16   4   4    4.30    4.98
  16  -4   4    6.38    4.60
  16   4   4   17.23    7.34
  16  -4   4    1.26    5.29
  16   4   4    5.33    4.03
  16  -4   4   14.57    6.42
  16   4   5  197.25   17.16
  16  -4   5  206.69   16.57
  16  -4   5  244.28   18.33
  16   4   5  195.38   19.93
  16  -4   5  204.20   18.97
  16   4   5  230.27   17.53
  16  -4   5  241.05   19.65
  16  -4   6    0.80    3.47
  16   4   6    2.05    4.54
  16  -4   6   -2.03    4.91
  16  -4   6   -3.04    3.66
  16   4   6   -2.85    6.00
  16  -4   6    1.22    5.00
  16   4   6    0.93    4.00
  16  -4   7   36.87    5.17
  16   4   7   25.80    5.58
  16   4   7   48.71    7.82
  16  -4   7   50.21    7.73
  16  -4   7   28.47    6.04
  16   4   7   40.41    8.86
  16  -4   7   40.14    8.29
  16   4   7   44.49    7.59
  16  -4   8   54.02    6.38
  16   4   8   62.64    7.93
  16   4   8   78.63   11.89
  16  -4   8   67.55    8.32
  16   4   8   79.62    9.79
  16  -4   8   70.99   10.66
  16   4   9    7.45    5.95
  16  -4   9    7.43    5.70
  16   4   9   17.06    5.70
  16   4  10   20.22    6.71
  16  -4  10   12.89    5.45
  16   4  10   10.36    4.90
  16  -4  10   17.30    5.67
  16   4  11  375.72   26.09
  16  -4  11  423.71   26.20
  16   4  11  422.40   25.50
  16  -4  11  432.25   26.95
  16   4  12    3.25    4.22
  16  -4  12    4.13    4.52
  16   4  12    3.09    3.80
  16  -4  12    5.22    4.83
  16  -4  13  327.58   21.30
  16   4  13  337.13   21.17
  16  -4  13  369.61   22.37
  16  -4  14    6.99    4.00
  16  -4  14    6.37    3.38
  16   4  14    4.44    3.52
  16  -4  14    4.18    3.92
  16  -4  15  665.06   33.16
  16  -4  15  592.47   31.89
  16   4  15  620.52   32.29
  16  -4  15  647.14   32.95
  16  -4  16    3.94    2.93
  16  -4  16    2.86    2.20
  16   4  16    4.62    2.64
  16  -4  16   -0.99    2.70
  16  -4  17    1.87    1.85
  16   4  17   -0.36    2.02
  16  -4  17    1.14    2.17
  16  -6 -29  166.99   12.79
  16   6 -28    0.75    3.63
  16  -6 -28    0.85    3.48
  16   6 -27   70.12    9.45
  16  -6 -27   57.72    9.40
  16   6 -26   42.87    8.52
  16  -6 -26   33.54    8.11
  16  -6 -25  658.95   36.02
  16   6 -25  733.83   42.24
  16  -6 -25  695.15   42.77
  16  -6 -24  335.17   22.14
  16  -6 -23  480.95   29.40
  16  -6 -22   97.04   11.64
  16  -6 -21  394.64   26.47
  16  -6 -21  378.44   32.83
  16  -6 -20   10.79    9.55
 -16  -6  19   82.02    9.29
  16  -6 -19   69.72    8.51
  16  -6 -19   97.04   17.46
  16   6 -19   75.59    8.68
  16   6 -19   77.61   11.03
 -16  -6  18  183.56   14.75
  16  -6 -18  202.94   13.84
  16  -6 -18  194.70   14.72
  16  -6 -18  179.55   23.33
  16   6 -18  170.81   13.86
  16   6 -18  189.01   17.49
  16  -6 -17  112.10    9.81
  16  -6 -17   91.40    9.95
  16  -6 -17   74.21   16.26
  16   6 -17  107.57   10.10
  16   6 -17  111.55   13.30
  16  -6 -16  101.89    9.40
  16  -6 -16   91.07    9.72
  16  -6 -16  102.24   18.21
  16   6 -16   97.66    9.43
  16  -6 -15   45.21    6.46
  16  -6 -15   46.70    6.96
  16  -6 -15   36.77   12.21
  16  -6 -14   51.86    6.87
  16  -6 -14   50.78    7.19
  16  -6 -14   46.40   14.88
  16  -6 -13  620.73   31.99
  16  -6 -13  536.08   44.20
  16  -6 -13  565.92   32.35
  16   6 -13  592.74   36.09
  16  -6 -12   10.27    3.99
  16   6 -12    8.61    6.65
  16  -6 -12   16.35   11.05
  16   6 -12   11.26    5.56
  16  -6 -11  394.43   25.59
  16  -6 -11  374.35   22.35
  16   6 -11  337.33   26.75
  16   6 -11  383.91   25.56
  16  -6 -10   65.32    8.05
  16   6 -10   55.23   10.37
  16  -6 -10   40.04   12.29
  16   6 -10   67.26    9.87
  16  -6  -9   50.29    7.27
  16   6  -9   49.24    9.93
  16  -6  -9   33.14   10.85
  16   6  -9   63.84    9.48
  16  -6  -8   10.88    4.63
  16   6  -8    1.36    4.56
  16  -6  -8    1.78    6.86
  16   6  -8    2.09    4.17
  16  -6  -7  171.96   15.79
  16  -6  -7  176.83   15.20
  16   6  -7  184.27   18.28
  16   6  -7  188.91   16.13
  16  -6  -6  157.46   15.10
  16  -6  -6  156.93   13.94
  16   6  -6  160.61   16.65
  16   6  -6  154.50   14.56
  16  -6  -5    6.45    4.76
  16  -6  -5    5.65    4.28
  16   6  -5    4.10    5.45
  16   6  -5   11.66    5.06
  16  -6  -4  115.92   12.30
  16   6  -4  135.36   15.51
  16   6  -4  138.89   13.07
  16  -6  -4  115.73   13.01
  16  -6  -3  222.60   17.73
  16   6  -3  216.00   20.08
  16   6  -3  253.31   18.02
  16  -6  -3  209.86   18.09
  16  -6  -2   34.29    7.77
  16  -6  -2   32.98    6.96
  16   6  -2   34.90   10.73
  16   6  -2   27.41    7.73
  16   6  -2   36.46    6.60
  16  -6  -1    7.05    4.67
  16  -6  -1    8.21    5.34
  16   6  -1    5.01    6.45
  16   6  -1    6.81    6.03
  16   6  -1    3.17    3.34
  16  -6   0  150.09   14.47
  16   6   0  170.86   18.94
  16   6   0  150.06   16.57
  16   6   0  140.47   12.18
  16  -6   1    7.61    4.83
  16   6   1   20.18    8.45
  16   6   1   13.34    6.33
  16  -6   2   62.23    9.59
  16  -6   2   41.36    7.53
  16  -6   2   59.38    8.58
  16   6   2   43.73   11.10
  16   6   2   49.74    9.27
  16  -6   3   36.03    7.90
  16  -6   3   16.31    4.95
  16  -6   3   27.83    6.24
  16   6   3   20.15    8.47
  16   6   3   22.95    7.65
  16  -6   3   21.00    7.45
  16  -6   4  502.76   30.31
  16  -6   4  440.30   26.19
  16  -6   4  392.15   25.72
  16   6   4  416.09   32.43
  16   6   4  455.50   30.26
  16  -6   4  487.16   30.96
  16  -6   5   19.91    6.41
  16   6   5   13.11    7.67
  16   6   5   28.97    7.16
  16  -6   5    8.48    5.72
  16   6   5   21.14    4.89
  16  -6   6  355.30   23.98
  16   6   6  344.67   27.15
  16  -6   6  319.45   23.67
  16   6   6  299.93   20.14
  16  -6   6  320.45   24.08
  16  -6   7  330.65   22.99
  16   6   7  333.96   26.80
  16  -6   7  305.42   22.81
  16   6   7  319.61   20.49
  16  -6   7  333.02   23.77
  16  -6   8  421.65   26.56
  16   6   8  443.43   30.78
  16  -6   8  407.50   26.33
  16   6   8  375.94   23.74
  16  -6   8  425.20   27.30
  16  -6   9   76.85    9.51
  16   6   9   80.52   11.97
  16   6   9   75.38    8.31
  16  -6   9   65.94    9.10
  16  -6   9   79.56   10.04
  16  -6  10   69.12    8.83
  16   6  10   56.44    9.61
  16   6  10   47.48    6.54
  16  -6  10   68.96    9.01
  16  -6  11   50.95    7.22
  16   6  11   56.66    9.31
  16   6  11   56.53    6.92
  16  -6  11   61.17    8.04
  16  -6  12    0.67    3.31
  16   6  12    0.83    4.00
  16   6  12    4.03    2.84
  16  -6  13  198.35   13.49
  16   6  13  182.40   13.63
  16   6  13  175.17   11.93
  16   6  14    0.44    0.85
  16   6  14    2.53    2.06
  16  -6  15    5.46    2.57
  16   6  15    2.74    1.57
  16  -6  16    0.64    1.68
  16  -8 -27    6.56    3.35
  16   8 -26    8.13    3.32
  16  -8 -26    3.03    3.73
  16  -8 -25    2.96    2.89
  16   8 -25    0.75    3.64
  16  -8 -24    2.57    3.57
  16   8 -24    4.71    4.81
  16  -8 -23    9.12    4.30
  16   8 -23   11.26    5.66
  16  -8 -22    7.75    5.00
  16   8 -22   13.04    7.13
  16  -8 -22    2.96    6.72
  16  -8 -21   21.66    6.24
  16   8 -21   17.66    7.58
  16  -8 -21   33.00    9.60
  16  -8 -20  181.20   15.32
  16  -8 -20  141.44   11.23
  16   8 -20  149.07   17.74
  16  -8 -20  125.29   17.42
  16  -8 -19    7.27    5.31
  16  -8 -19    1.79    2.83
  16   8 -19   13.58    7.86
  16  -8 -19    9.86    9.70
  16  -8 -18  726.23   39.36
  16  -8 -18  666.91   34.68
  16   8 -18  619.11   43.17
  16  -8 -18  620.12   45.90
  16  -8 -17   46.64    6.47
  16   8 -17   61.19   12.90
  16  -8 -17   36.16   12.69
  16  -8 -16  668.02   35.22
  16   8 -16  690.97   44.82
  16  -8 -16  659.85   49.14
  16  -8 -15    0.68    3.34
  16   8 -15    5.05    6.08
  16  -8 -15   -2.48    9.57
  16  -8 -14  478.20   29.28
  16  -8 -14  436.24   25.74
  16   8 -14  455.52   33.40
  16  -8 -14  428.94   38.53
  16  -8 -13   -1.43    3.58
  16   8 -13    4.77    6.14
  16  -8 -13   -2.55   10.46
  16  -8 -12   42.79    6.75
  16   8 -12   23.35    7.96
  16  -8 -12   35.29   13.19
  16   8 -12   43.33    8.45
  16  -8 -11    1.53    3.69
  16  -8 -11   -2.43    8.79
  16   8 -11    3.51    4.37
  16  -8 -10    8.30    5.03
  16  -8 -10   15.89    4.87
  16  -8 -10   11.48    9.15
  16   8 -10   10.51    5.98
  16  -8  -9    2.10    4.97
  16  -8  -9   -2.48    3.48
  16  -8  -9   -2.12    9.17
  16   8  -9   -1.16    4.48
  16  -8  -8    3.21    4.62
  16  -8  -8    3.45    3.91
  16   8  -8    7.61    6.23
  16  -8  -8   11.55    9.65
  16   8  -8    5.77    4.86
  16  -8  -7   16.16    6.25
  16   8  -7    9.21    6.80
  16  -8  -7    1.71    6.99
  16   8  -7    9.14    5.07
  16   8  -6  148.22   17.17
  16   8  -6  139.86   14.46
  16  -8  -6  122.81   13.68
  16  -8  -5   13.89    5.68
  16   8  -5   22.66    8.92
  16   8  -5    7.79    6.92
  16   8  -5   16.61    5.59
  16  -8  -4    3.13    4.28
  16   8  -4    8.76    7.18
  16   8  -4   -1.56    5.85
  16   8  -4    3.23    3.89
  16  -8  -3    2.01    4.44
  16   8  -3    5.29    6.59
  16   8  -3    7.81    6.75
  16   8  -3    1.04    3.89
  16  -8  -2    3.79    4.19
  16   8  -2   -1.77    7.03
  16   8  -2    7.75    5.80
  16   8  -2    2.97    4.17
  16  -8  -1   16.07    5.28
  16   8  -1   12.21    7.24
  16  -8   0   23.81    6.22
  16   8   0   29.87    8.60
  16  -8   1   15.92    5.63
  16  -8   1   19.01    5.10
  16   8   1   29.11    8.23
  16  -8   2    2.85    4.49
  16   8   2    1.40    5.58
  16  -8   3    0.95    4.21
  16   8   3    6.64    7.35
  16   8   3    5.37    6.21
  16  -8   4   39.35    7.36
  16   8   4   27.28    8.73
  16   8   4   27.79    7.64
  16  -8   5    7.23    4.87
  16   8   5    9.22    7.12
  16   8   5    6.98    5.62
  16  -8   6  158.63   13.81
  16   8   6  170.68   17.64
  16   8   6  138.81   14.22
  16  -8   7    2.36    3.80
  16   8   7    1.34    5.47
  16   8   7    2.63    3.79
  16  -8   8   21.41    5.21
  16   8   8   30.14    7.70
  16  -8   9    3.17    3.63
  16   8   9   11.65    5.96
  16  -8  10    1.11    2.72
  16   8  10    3.60    4.68
  16  -8  11   11.28    3.44
  16   8  11   18.94    5.10
  16  -8  12  211.31   12.86
  16   8  12  217.98   14.42
  16  -8  13    2.06    1.69
  16 -10 -22   35.02    5.17
  16 -10 -22   23.26    5.01
  16 -10 -21   62.81    7.40
  16 -10 -21   52.46    7.87
  16 -10 -20   65.98    8.29
  16  10 -20   39.11    6.65
  16  10 -20   41.51    7.81
  16 -10 -20   40.39    8.21
  16 -10 -19    6.60    4.91
  16  10 -19    2.85    4.93
  16  10 -19    2.26    4.99
  16 -10 -19    1.16    5.11
  16 -10 -18  207.37   16.30
  16  10 -18  209.55   18.67
  16  10 -18  204.64   19.14
  16 -10 -18  206.01   19.21
  16 -10 -17   21.54    6.20
  16 -10 -17    4.85    3.39
  16  10 -17    5.59    6.19
  16 -10 -17   17.20    7.46
  16 -10 -16   42.72    6.24
  16  10 -16   39.76    9.91
  16 -10 -16   46.72   10.89
  16  10 -15   52.76   11.03
  16 -10 -15   66.58   12.74
  16 -10 -15   68.59    7.70
  16 -10 -14  265.47   17.14
  16  10 -14  236.12   22.37
  16  10 -14  246.32   22.50
  16 -10 -14  210.78   23.20
  16  10 -13   84.80   13.33
  16 -10 -13   63.49    8.95
  16 -10 -13   80.47    8.57
  16  10 -13   67.62   12.26
  16 -10 -13   65.80   13.09
  16 -10 -12   20.52    5.41
  16  10 -12   19.98    8.28
  16  10 -12    5.93    6.10
  16 -10 -12    8.83    8.19
  16 -10 -11   78.26    9.57
  16  10 -11   93.02   13.48
  16  10 -11   69.80   11.69
  16 -10 -11   68.00   12.81
  16 -10 -10  122.86   12.05
  16  10 -10  126.98   15.92
  16  10 -10  124.64   15.11
  16 -10 -10  103.24   15.01
  16 -10  -9   19.58    5.64
  16  10  -9   31.50    8.49
  16  10  -9   21.21    7.78
  16 -10  -9   18.71    7.91
  16 -10  -8   31.96    6.61
  16  10  -8   28.26    8.56
  16 -10  -8   15.17    6.98
  16 -10  -7    1.74    4.12
  16  10  -7   -4.43    6.69
  16 -10  -6   59.11    8.38
  16  10  -6   52.87   10.50
  16 -10  -5   -0.80    3.78
  16  10  -5    4.38    5.46
  16  10  -5   -1.37    5.44
  16 -10  -4   37.55    6.39
  16  10  -4   37.77    9.22
  16  10  -4   36.60    8.63
  16  10  -3   23.01    8.15
  16  10  -3   22.77    7.60
  16  10  -2    9.95    6.15
  16  10  -2    5.24    5.66
  16  10  -1   61.54   11.35
  16  10  -1   61.34   10.43
  16  10   0   31.37    8.62
  16  10   0   28.40    7.64
  16  10   1   51.52    9.90
  16  10   1   40.23    8.60
  16  10   2   36.76    8.80
  16  10   2   38.88    8.11
  16  10   3   28.81    8.10
  16  10   3   23.52    6.56
  16  10   4  110.66   13.02
  16  10   4  115.41   12.17
  16  10   5    4.08    4.72
  16  10   5    3.14    4.01
  16  10   6    4.99    3.07
  16  10   9   10.07    3.53
  16 -12 -14   -0.46    2.65
  16  12 -14    1.50    3.07
  16 -12 -13   30.13    4.48
  16  12 -13   21.11    5.70
  16 -12 -12   34.44    4.79
  16  12 -12   49.58    7.76
  16  12 -11  114.99   11.93
  16 -12 -11  112.01    8.78
  16 -12 -10    5.62    2.58
  16  12 -10    4.85    4.62
  16  12 -10    3.72    4.02
  16  12  -9   31.74    6.68
  16  12  -9   37.79    7.27
  16  12  -8   -1.75    3.88
  16  12  -8    9.04    4.78
  16  12  -7   75.38    9.32
  16  12  -7   65.18    8.88
  16  12  -6   40.52    7.24
  16  12  -6   35.00    6.73
  16  12  -5   15.08    5.28
  16  12  -4    1.61    3.81
  16  12  -3   75.04    8.98
  16  12  -2    3.60    3.68
  16  12  -2    0.71    3.14
  16  12  -1    4.66    3.81
  16  12  -1    6.56    3.54
  16  12   0   15.73    4.26
  16  12   0   15.97    4.05
  16  12   1  112.37    9.35
  16  12   1  102.60    8.82
  17  -1 -32   18.40    3.57
  17   1 -32   22.24    3.91
  17  -1 -31  215.07   14.66
  17   1 -31  218.49   14.76
  17  -1 -30  121.81   11.10
  17   1 -30  122.44   11.10
 -17   1  30  109.44    9.16
 -17   1  29   12.42    3.81
  17   1 -29   13.67    4.91
 -17   1  28    0.63    3.00
  17   1 -28    4.84    4.18
 -17   1  27   26.89    5.55
  17   1 -27   23.47    6.35
  17   1 -26   85.73   11.01
 -17   1  26   65.14    8.23
  17   1 -25    2.39    4.47
 -17   1  25    4.56    4.09
  17   1 -24  290.21   22.37
 -17   1  24  276.10   18.96
 -17  -1  23    4.49    3.23
 -17   1  23    0.70    2.94
  17  -1 -23    5.51    7.10
  17   1 -23   -0.84    3.65
  17   1 -23   -2.44    5.14
 -17   1  23   11.78    4.67
  17  -1 -22   48.14   12.28
  17   1 -22   64.26    8.23
  17   1 -22   71.01   10.72
  17   1 -21  139.61   14.84
  17  -1 -21  165.92   20.11
  17   1 -21  139.15   12.51
  17   1 -20   21.59    8.83
  17  -1 -20   29.10    9.49
  17   1 -20   17.56    4.86
  17   1 -20   24.96    6.81
  17   1 -19   16.22    7.35
  17  -1 -19   10.66    7.29
  17   1 -19    5.12    3.76
  17   1 -19   12.02    5.59
  17   1 -19   13.29    5.96
  17   1 -18   91.41   11.20
  17   1 -18   91.98   13.86
  17  -1 -18   91.17   14.72
  17   1 -18   93.60    9.35
  17   1 -18   95.55   12.31
  17   1 -17  211.28   17.16
  17   1 -17  178.26   18.94
  17  -1 -17  204.58   21.45
  17   1 -17  193.70   17.35
  17  -1 -16   77.59   10.63
  17   1 -16   94.26   12.86
  17  -1 -16   87.38   13.45
  17  -1 -16   67.17    9.22
  17   1 -16   75.96    9.95
  17   1 -16   75.30   10.49
  17  -1 -15    8.65    5.22
  17   1 -15    4.97    5.10
  17  -1 -15    5.82    6.60
  17  -1 -15   11.07    4.97
  17   1 -15    4.70    3.86
  17   1 -15    6.39    4.83
  17  -1 -14  133.05   12.41
  17   1 -14  113.55   11.60
  17  -1 -14  120.19   14.29
  17   1 -14   98.07   12.56
  17   1 -14  139.80   13.30
  17  -1 -14  103.77   12.50
  17  -1 -13  114.14   11.58
  17  -1 -13  127.35   12.01
  17   1 -13  131.29   12.04
  17   1 -13   96.75   11.88
  17  -1 -13  105.92   13.11
  17   1 -13  123.41   12.34
  17  -1 -13  127.47   13.26
  17   1 -12  120.86   12.34
  17   1 -12  117.96   10.76
  17  -1 -12  101.29   10.73
  17   1 -12  103.92   11.08
  17  -1 -12   86.38   11.36
  17   1 -12  123.90   12.14
  17  -1 -12  107.97   10.82
  17  -1 -12  109.98   12.25
  17  -1 -11   44.42    7.90
  17   1 -11   73.41    8.10
  17   1 -11   47.22    7.89
  17  -1 -11   46.20    7.65
  17   1 -11   63.18    8.33
  17   1 -11   48.83    7.56
  17  -1 -11   57.50    7.46
  17  -1 -10  172.80   13.05
  17   1 -10  223.86   15.15
  17   1 -10  163.67   15.06
  17  -1 -10  172.70   14.47
  17   1 -10  189.24   15.19
  17   1 -10  213.00   15.15
  17  -1 -10  176.28   15.61
  17  -1  -9   14.26    4.97
  17   1  -9    8.27    4.64
  17   1  -9   13.11    3.98
  17  -1  -9   17.07    4.74
  17   1  -9    9.05    4.45
  17   1  -9   15.10    4.48
  17   1  -8  101.10    9.76
  17   1  -8   66.71    9.29
  17  -1  -8   90.13    9.74
  17   1  -8   92.21    9.98
  17   1  -8   82.61    8.57
  17  -1  -8   79.07   10.02
  17  -1  -7    5.44    4.20
  17   1  -7    3.56    4.38
  17   1  -7    4.00    2.99
  17  -1  -7    6.41    3.79
  17   1  -7    0.82    3.78
  17  -1  -7    5.54    3.67
  17   1  -7    1.14    2.76
  17  -1  -6   10.91    4.49
  17   1  -6    7.98    4.54
  17   1  -6   11.49    4.42
  17  -1  -6    1.60    3.48
  17   1  -6   10.64    4.55
  17  -1  -6    7.36    3.88
  17   1  -6   11.95    3.86
  17   1  -6    4.48    2.56
  17   1  -5  178.28   14.63
  17  -1  -5  166.46   14.31
  17   1  -5  152.86   13.55
  17  -1  -5  155.39   13.03
  17   1  -5  135.90   12.73
  17  -1  -5  158.40   13.69
  17   1  -5  143.39   12.28
  17   1  -5  137.17   10.05
  17   1  -5  149.65   12.85
  17   1  -4    9.14    4.67
  17   1  -4    0.90    4.07
  17  -1  -4   10.48    4.41
  17   1  -4    9.89    4.22
  17  -1  -4    1.71    3.60
  17   1  -4    8.66    3.76
  17   1  -3   25.56    6.21
  17   1  -3   14.60    5.18
  17  -1  -3   11.90    5.29
  17   1  -3   10.79    4.66
  17  -1  -3   18.26    5.22
  17   1  -3   22.40    5.14
  17  -1  -3   16.49    4.45
  17   1  -2   39.36    7.40
  17   1  -2   55.53    8.10
  17   1  -2   40.41    7.08
  17  -1  -2   44.67    7.39
  17   1  -2   40.28    6.68
  17  -1  -2   41.04    6.47
  17   1  -1   99.33   11.12
  17   1  -1   91.39   10.60
  17   1  -1   77.27    9.74
  17  -1  -1  109.61   11.34
  17   1  -1  116.32   10.95
  17  -1  -1  102.16   10.56
  17   1   0  569.37   32.47
  17  -1   0  559.27   32.96
  17   1   0  466.61   30.95
  17  -1   0  540.55   32.62
  17  -1   0  580.24   33.01
  17   1   0  578.40   31.91
  17  -1   0  544.10   31.49
  17  -1   1   82.84   10.59
  17   1   1   72.12    9.59
  17  -1   1   86.43   10.84
  17  -1   1   86.19   10.76
  17   1   1   74.82    9.50
  17  -1   1   92.51   10.53
  17   1   2  373.75   24.53
  17  -1   2  364.30   25.02
  17  -1   2  312.09   23.65
  17  -1   2  377.37   25.42
  17   1   2  391.98   24.75
  17   1   2  401.60   23.20
  17   1   3    9.54    4.88
  17  -1   3    1.04    4.61
  17  -1   3    3.04    4.38
  17   1   3    5.67    5.14
  17   1   3    6.91    3.72
  17  -1   3    6.49    5.12
  17   1   3    3.85    4.06
  17   1   4    9.47    4.34
  17   1   4    9.57    5.17
  17  -1   4    8.44    5.32
  17   1   4   20.41    4.45
  17  -1   4   17.45    5.64
  17   1   4    8.11    5.73
  17  -1   4   15.53    6.27
  17   1   4   11.79    5.47
  17   1   5    4.76    4.32
  17  -1   5    1.06    4.48
  17   1   5   -2.34    5.97
  17   1   5   -1.61    3.40
  17   1   5    1.99    4.08
  17   1   6  546.24   31.84
  17  -1   6  486.02   31.95
  17   1   6  483.05   32.38
  17   1   6  555.08   31.27
  17   1   6  512.71   31.95
  17   1   7   40.07    7.44
  17  -1   7   37.53    8.19
  17   1   7   61.03    9.88
  17   1   7   49.75    7.85
  17   1   7   45.02    8.36
  17   1   8  709.64   41.70
  17  -1   8  734.53   43.13
  17   1   8  688.75   42.82
  17   1   8  769.72   41.70
  17   1   8  728.07   42.70
  17   1   9   95.14   10.60
  17  -1   9  117.39   12.15
  17  -1   9  118.99   11.14
  17   1   9  111.89   10.87
  17  -1   9  111.13   11.99
  17   1   9   87.18   10.73
  17   1  10    6.80    3.84
  17  -1  10   11.87    5.33
  17  -1  10    8.65    5.28
  17   1  10   11.59    5.41
  17   1  11   55.66    7.38
  17  -1  11   70.99    8.96
  17  -1  11   64.98    8.85
  17  -1  11   78.96    9.69
  17   1  12  135.11   11.05
  17  -1  12  140.04   12.28
  17  -1  12  146.22   12.92
  17  -1  12  158.62   13.43
  17  -1  13   33.08    5.57
  17  -1  13   38.56    6.27
  17  -1  14  227.70   14.90
  17  -1  14  215.26   15.51
  17  -1  15  174.44   12.13
  17  -1  15  207.67   13.92
  17  -1  16   -0.34    1.17
  17  -1  16    4.64    2.94
  17   1  16    3.65    2.81
  17   1  16    6.57    3.08
  17  -1  17    4.92    2.54
  17   1  17    2.55    2.39
  17  -1  17    4.57    2.57
  17   1  17    2.04    2.30
  17  -1  18  134.57    8.58
  17   1  18  134.68    8.79
  17  -1  18  142.44    8.83
  17   1  18  134.04    8.63
  17  -3 -31  127.03    9.19
  17   3 -31  141.10    9.78
  17  -3 -30    7.58    3.28
  17   3 -30    9.62    3.60
  17  -3 -29  319.68   20.72
  17   3 -29  357.14   21.35
 -17   3  29  331.21   19.46
 -17  -3  29  358.71   19.49
 -17   3  28   -3.48    3.12
 -17  -3  28    6.04    2.90
  17  -3 -28    7.17    6.21
  17  -3 -28   -1.60    4.36
  17   3 -28    4.76    4.13
 -17   3  27    8.39    3.96
 -17  -3  27    7.36    3.85
  17  -3 -27   15.21    7.20
  17  -3 -27    7.22    4.54
  17   3 -27    8.90    4.72
  17  -3 -26  249.57   19.46
  17   3 -26  263.67   19.69
 -17   3  26  293.16   18.28
 -17  -3  26  253.81   17.26
  17   3 -25  102.93   11.70
  17  -3 -25   75.46   10.81
 -17   3  25  108.89   10.40
 -17  -3  25  105.54   10.04
  17  -3 -24   17.97    5.74
  17   3 -24   23.53    6.74
 -17   3  24   19.76    5.25
 -17  -3  24   16.79    4.64
  17  -3 -23   41.64   11.69
  17  -3 -23   34.88    7.49
  17   3 -23   34.86    7.57
 -17   3  23   37.95    7.11
 -17  -3  23   60.29    7.90
  17  -3 -22   90.61   10.94
  17  -3 -22  104.99   16.73
  17   3 -22   90.36   10.26
  17   3 -22   81.86   10.85
 -17   3  22  103.85   10.21
 -17  -3  22   86.33    9.44
  17   3 -22  111.26   12.88
  17  -3 -21   14.69    5.75
  17  -3 -21    1.97    7.37
  17  -3 -21   11.86    3.90
  17  -3 -21   13.23    4.94
  17   3 -21   21.59    5.91
  17   3 -21    6.00    4.66
  17  -3 -20   36.77    7.89
  17  -3 -20   37.33   10.95
  17  -3 -20   26.56    5.35
  17  -3 -20   22.77    6.30
  17   3 -20   22.22    5.71
  17  -3 -19   91.96   11.43
  17  -3 -19   92.26    9.16
  17  -3 -19  116.49   16.95
  17  -3 -19   72.25    9.95
  17   3 -19   80.36   10.79
  17  -3 -18   39.49    8.37
  17  -3 -18   41.83   11.29
  17  -3 -18   36.28    5.85
  17  -3 -18   45.12    7.83
  17   3 -18   40.01    7.84
  17  -3 -17   58.55    9.20
  17  -3 -17   57.24   12.02
  17  -3 -17   60.02    7.42
  17  -3 -17   64.37    8.56
  17   3 -17   46.55    7.96
  17   3 -17   50.89    7.02
  17   3 -17   29.92    7.43
  17  -3 -16   14.95    5.91
  17  -3 -16   24.88    9.13
  17  -3 -16   18.59    4.45
  17  -3 -16   27.08    6.11
  17   3 -16   28.26    6.44
  17   3 -16   29.32    5.56
  17   3 -16   19.02    6.46
  17  -3 -15   76.45   10.43
  17  -3 -15   70.17    7.69
  17  -3 -15   72.79   13.50
  17  -3 -15   64.03    8.99
  17   3 -15   70.73    9.25
  17   3 -15   65.04    9.75
  17  -3 -14    5.15    4.10
  17  -3 -14    3.21    3.29
  17  -3 -14   -1.60    5.97
  17  -3 -14    4.38    4.14
  17   3 -14    0.90    3.58
  17   3 -14   -1.05    4.05
  17  -3 -13  261.80   19.32
  17  -3 -13  254.72   17.58
  17   3 -13  261.32   17.71
  17  -3 -13  218.52   17.28
  17   3 -13  248.07   18.28
  17  -3 -13  200.36   20.64
  17   3 -13  251.68   19.03
  17  -3 -12   52.96    8.93
  17  -3 -12   63.07    8.01
  17   3 -12   54.88    7.35
  17  -3 -12   36.73    8.57
  17  -3 -12   53.54    7.77
  17   3 -12   40.10    7.30
  17   3 -12   49.03    8.41
  17  -3 -11    7.91    5.14
  17  -3 -11    0.79    2.95
  17   3 -11    6.39    3.93
  17  -3 -11    2.45    4.88
  17  -3 -11    0.84    3.70
  17   3 -11    5.17    4.56
  17   3 -11    0.95    4.19
  17  -3 -10  180.72   14.41
  17   3 -10  187.90   14.71
  17  -3 -10  174.92   14.54
  17   3 -10  204.00   15.53
  17   3 -10  195.04   15.65
  17  -3 -10  164.84   15.39
  17  -3  -9   10.89    5.02
  17   3  -9   15.71    5.94
  17  -3  -9   20.62    4.96
  17   3  -9   16.32    4.72
  17  -3  -9   24.25    5.17
  17   3  -9   22.84    5.59
  17   3  -9   12.23    4.82
  17  -3  -8  102.08   10.05
  17   3  -8  102.20   10.21
  17  -3  -8   98.48   10.98
  17   3  -8   91.39   11.33
  17  -3  -8   89.47    9.71
  17   3  -8  102.40   10.34
  17   3  -8  111.60   12.13
  17   3  -8   98.04   10.53
  17  -3  -8   82.06   10.76
  17  -3  -7  858.14   44.08
  17   3  -7  726.14   43.11
  17  -3  -7  744.67   41.70
  17   3  -7  752.10   42.18
  17   3  -7  867.15   44.93
  17   3  -7  917.24   42.95
  17  -3  -7  742.24   43.51
  17  -3  -7  794.24   42.15
  17   3  -7  846.97   42.83
  17  -3  -6   13.20    6.06
  17  -3  -6    6.59    4.19
  17   3  -6   17.60    4.74
  17  -3  -6   12.98    4.31
  17   3  -6   10.84    5.23
  17   3  -6    4.81    4.18
  17  -3  -6   11.77    3.89
  17   3  -6   15.67    4.24
  17   3  -6    6.51    3.72
  17  -3  -5  630.98   36.31
  17   3  -5  536.37   34.88
  17  -3  -5  598.14   34.48
  17   3  -5  644.38   35.27
  17   3  -5  661.64   36.34
  17  -3  -5  684.45   37.34
  17   3  -5  691.32   34.09
  17  -3  -4  105.02   11.57
  17   3  -4  105.43   10.81
  17  -3  -4   82.87    9.75
  17   3  -4  115.75   11.27
  17   3  -4  104.36   11.07
  17  -3  -4  105.59   12.06
  17   3  -4  106.25    9.34
  17  -3  -4  120.95   11.27
  17  -3  -3  558.25   32.26
  17   3  -3  443.72   29.22
  17  -3  -3  505.09   30.01
  17   3  -3  539.35   30.57
  17  -3  -3  522.45   32.23
  17   3  -3  540.43   27.62
  17  -3  -3  558.62   31.04
  17  -3  -2   20.10    5.93
  17   3  -2   24.80    4.48
  17  -3  -2    7.34    4.20
  17   3  -2    8.40    4.40
  17  -3  -2   10.75    4.85
  17  -3  -1  127.10   12.89
  17   3  -1   90.01    9.60
  17   3  -1  137.28   14.58
  17   3  -1   99.48    9.96
  17  -3  -1  118.24   12.05
  17  -3   0   65.00    9.66
  17   3   0   77.67    8.31
  17  -3   0   67.51    9.78
  17   3   0   51.39    9.54
  17   3   0   61.42    7.90
  17  -3   0   65.06    9.27
  17   3   1    4.17    4.03
  17  -3   1    3.30    4.75
  17  -3   1    8.36    5.44
  17   3   1    1.26    5.29
  17   3   1    0.82    3.86
  17  -3   1    2.12    4.57
  17   3   2    3.33    3.51
  17  -3   2    6.79    4.89
  17  -3   2    3.10    4.58
  17   3   2    1.10    5.00
  17  -3   2    4.31    4.66
  17   3   2    2.52    4.87
  17  -3   2    3.62    5.21
  17   3   2    1.72    3.91
  17  -3   2    4.44    4.68
  17   3   3   -1.64    3.89
  17  -3   3    5.78    5.58
  17  -3   3   -1.01    4.60
  17   3   3    1.13    4.99
  17  -3   3    6.60    5.62
  17   3   3    8.82    5.58
  17  -3   3    3.70    5.45
  17   3   3    3.62    3.71
  17  -3   3    4.60    4.85
  17   3   4   19.26    5.05
  17  -3   4   24.58    7.26
  17  -3   4   12.67    5.44
  17   3   4   21.45    6.83
  17  -3   4   11.06    5.68
  17   3   4   10.03    5.71
  17  -3   4   12.47    6.16
  17   3   4    6.50    4.86
  17  -3   4   15.29    6.45
  17   3   5  231.13   17.61
  17  -3   5  238.64   18.50
  17   3   5  271.13   20.59
  17  -3   5  267.54   20.19
  17   3   5  252.22   21.43
  17  -3   5  286.39   22.35
  17   3   5  264.49   19.59
  17  -3   5  277.50   18.60
  17  -3   5  327.20   22.62
  17  -3   6  254.80   18.16
  17   3   6  300.65   21.44
  17  -3   6  248.32   20.06
  17   3   6  262.82   21.77
  17  -3   6  263.96   21.92
  17   3   6  292.69   20.31
  17  -3   6  255.11   18.39
  17   3   6  306.06   19.20
  17  -3   6  298.88   22.45
  17  -3   7  279.49   20.17
  17   3   7  335.94   23.91
  17  -3   7  350.92   24.02
  17   3   7  352.07   25.34
  17  -3   7  435.80   27.37
  17   3   7  390.13   24.50
  17  -3   7  395.23   22.93
  17   3   7  386.21   22.75
  17  -3   7  415.99   26.62
  17  -3   8  144.48    8.76
  17   3   8  104.85   11.86
  17  -3   8  144.67   12.25
  17   3   8   40.68    8.10
  17   3   8   45.96    7.24
  17  -3   8   44.71    8.95
  17   3   8   51.90    8.25
  17  -3   8   44.76    8.69
  17  -3   8   54.86    7.80
  17  -3   9   98.69   13.67
  17   3   9   81.48   12.39
  17  -3   9   79.78   13.03
  17  -3  10  117.91   12.37
  17  -3  10  129.86   12.92
  17   3  10  108.35   11.20
  17  -3  11   49.50    8.02
  17  -3  11   56.34    8.69
  17   3  11   49.73    7.50
  17  -3  12   15.51    5.09
  17  -3  12   22.67    5.67
  17   3  12   11.22    4.32
  17  -3  13  717.62   37.47
  17  -3  13  734.97   37.64
  17   3  13  666.30   36.63
  17  -3  13  715.36   37.56
  17  -3  14   46.11    6.39
  17  -3  14   46.13    6.40
  17   3  14   39.60    5.95
  17  -3  14   39.52    6.23
  17  -3  15  159.61   11.52
  17  -3  15  169.63   11.80
  17   3  15  158.48   11.61
  17  -3  15  160.41   11.78
  17  -3  16   10.73    2.98
  17  -3  16   12.98    3.16
  17   3  16    6.50    2.83
  17  -3  16    9.42    3.21
  17  -3  17    2.64    1.66
  17  -3  17    1.37    1.61
  17   3  17    3.65    1.98
  17  -3  17    2.70    1.88
  17   3  17    4.31    2.04
  17   5 -29  335.97   21.51
  17  -5 -29  329.04   21.29
  17   5 -28   15.58    5.78
  17  -5 -28   23.85    6.63
  17  -5 -27   62.56    9.76
  17   5 -27   35.85    5.58
 -17  -5  26   46.23    5.70
  17   5 -26   45.45    6.91
 -17  -5  25   21.68    4.37
  17  -5 -25   27.64    5.75
  17   5 -25   29.23    6.03
  17  -5 -24   19.34    5.45
 -17   5  24   25.06    5.06
 -17  -5  24   23.14    4.91
  17  -5 -24   19.86    5.60
  17   5 -24   15.97    5.08
 -17   5  23    6.94    3.46
 -17  -5  23    5.53    3.31
  17  -5 -23    5.72    4.52
  17  -5 -23    7.00    7.17
  17  -5 -23    8.19    4.31
  17   5 -23    7.13    4.40
  17  -5 -22   39.66    7.96
  17  -5 -22   38.95   10.96
  17  -5 -22   31.63    6.40
  17   5 -22   18.47    5.34
 -17   5  22   28.75    5.45
 -17  -5  22   30.59    5.40
  17  -5 -21   51.10    8.76
  17  -5 -21   64.08   13.63
  17  -5 -21   51.31    8.29
  17   5 -21   25.36    6.89
 -17   5  21   35.97    6.28
 -17  -5  21   46.25    6.53
  17  -5 -20    8.09    5.48
 -17  -5  20    4.18    3.72
  17  -5 -20   12.29    4.14
  17  -5 -20    4.01    8.00
  17  -5 -20   17.54    5.51
  17   5 -20    6.59    4.38
  17   5 -20    9.54    4.15
 -17   5  20    6.05    3.46
 -17  -5  20   13.78    4.50
  17   5 -20   13.24    5.82
  17  -5 -19   56.80    9.69
  17  -5 -19   42.38    7.25
  17  -5 -19   45.93    6.81
  17  -5 -19   57.34   13.55
  17  -5 -19   45.48    7.60
  17   5 -19   49.54    8.05
  17   5 -19   41.30    6.76
  17   5 -19   44.99    8.76
  17  -5 -18   30.94    7.77
  17  -5 -18   19.51    5.58
  17  -5 -18   28.93    5.59
  17  -5 -18   10.35    8.77
  17  -5 -18   24.12    5.87
  17   5 -18   20.26    5.64
  17   5 -18   23.55    5.22
  17  -5 -17  177.66   16.50
  17  -5 -17  140.45   13.19
  17  -5 -17  143.87   13.57
  17   5 -17  155.54   13.99
  17  -5 -17  168.11   21.32
  17  -5 -17  149.38   12.93
  17   5 -17  193.44   13.83
  17  -5 -16   50.27    8.84
  17  -5 -16   46.27    7.25
  17  -5 -16   44.22    5.95
  17  -5 -16   40.09    6.51
  17  -5 -16   49.47   12.22
  17  -5 -16   37.13    6.94
  17   5 -16   23.05    6.29
  17   5 -16   56.25    9.35
  17  -5 -15  281.53   20.58
  17  -5 -15  222.11   16.88
  17   5 -15  210.30   16.52
  17  -5 -15  242.08   15.66
  17  -5 -15  194.05   16.29
  17   5 -15  223.55   17.20
  17  -5 -15  255.38   25.60
  17  -5 -15  233.90   16.56
  17   5 -15  227.63   19.06
  17  -5 -14  194.38   16.80
  17  -5 -14  157.35   13.71
  17   5 -14  134.52   12.93
  17  -5 -14  152.83   13.68
  17   5 -14  169.91   14.17
  17  -5 -14  168.65   12.69
  17  -5 -14  163.69   20.52
  17  -5 -14  194.60   13.98
  17   5 -14  154.86   15.45
  17  -5 -13   75.54   10.39
  17   5 -13   72.15    8.57
  17  -5 -13   58.07    7.85
  17  -5 -13   57.06    7.19
  17  -5 -13   46.27    7.59
  17   5 -13   65.16    8.66
  17  -5 -13   58.84   12.43
  17   5 -13   71.61   10.21
  17  -5 -12   10.98    5.42
  17  -5 -12   13.04    4.46
  17   5 -12    9.42    4.23
  17  -5 -12   11.30    4.12
  17  -5 -12    9.76    4.32
  17   5 -12    8.18    4.27
  17  -5 -12    7.19    7.16
  17   5 -12    1.06    4.24
  17  -5 -11    6.52    5.35
  17  -5 -11    8.16    4.10
  17   5 -11    7.81    3.92
  17  -5 -11    0.68    3.02
  17   5 -11    1.35    5.53
  17  -5 -11    2.41    3.47
  17   5 -11    4.02    3.88
  17  -5 -11    1.68    5.61
  17   5 -11    4.13    4.46
  17  -5 -10  217.55   18.08
  17  -5 -10  226.52   15.34
  17  -5 -10  210.76   15.77
  17   5 -10  193.85   15.25
  17   5 -10  206.30   19.50
  17  -5 -10  204.08   20.39
  17   5 -10  181.96   16.31
  17  -5 -10  193.62   15.43
  17   5 -10  218.39   15.98
  17  -5  -9   15.15    5.74
  17   5  -9   12.35    4.57
  17  -5  -9   13.05    4.62
  17   5  -9   11.71    5.91
  17  -5  -9   12.45    4.54
  17   5  -9    6.16    4.43
  17   5  -9   25.41    5.99
  17  -5  -8   -0.96    4.36
  17   5  -8    2.57    4.47
  17  -5  -8    0.77    3.32
  17   5  -8   -1.51    4.00
  17   5  -8    0.95    3.98
  17  -5  -7   25.31    6.82
  17  -5  -7   19.85    4.95
  17   5  -7   12.65    6.15
  17   5  -7   14.96    4.74
  17   5  -7   18.24    5.41
  17  -5  -6  103.32   11.57
  17  -5  -6   86.14    9.70
  17   5  -6   84.76    9.53
  17   5  -6  100.20   10.89
  17  -5  -6   99.22   11.86
  17  -5  -5   81.84   10.99
  17  -5  -5   78.17    9.33
  17   5  -5   70.82    8.80
  17   5  -5   89.19   12.15
  17   5  -5   95.45   10.20
  17  -5  -4    4.34    5.04
  17  -5  -4   14.09    6.08
  17   5  -4    9.04    4.20
  17   5  -4    3.67    4.75
  17   5  -4   16.97    4.42
  17  -5  -3   23.58    6.63
  17  -5  -3   32.71    7.26
  17   5  -3   23.16    7.14
  17   5  -3   23.53    4.93
  17  -5  -2   46.97    8.42
  17   5  -2   43.54   10.32
  17   5  -2   47.26    8.76
  17   5  -2   33.27    5.57
  17  -5  -1  301.72   22.20
  17   5  -1  273.97   20.74
  17  -5  -1  317.40   21.75
  17   5  -1  331.84   26.36
  17   5  -1  301.81   23.11
  17  -5  -1  288.50   23.32
  17  -5   0  111.94   12.59
  17   5   0   85.27   11.04
  17  -5   0  103.30   11.62
  17   5   0  101.63   14.74
  17   5   0  104.49   12.77
  17  -5   0  124.15   14.20
  17  -5   0  107.08   13.16
  17  -5   1  756.70   42.62
  17   5   1  704.80   40.59
  17  -5   1  724.37   40.99
  17  -5   1  717.87   40.82
  17   5   1  769.10   46.71
  17   5   1  701.81   42.09
  17  -5   1  784.49   44.76
  17  -5   1  798.12   43.91
  17  -5   2   30.80    7.68
  17  -5   2   11.79    5.75
  17   5   2   20.10    6.39
  17  -5   2   22.72    6.52
  17   5   2   10.94    6.46
  17   5   2   26.44    7.03
  17  -5   2   29.98    8.94
  17  -5   2   20.78    7.13
  17  -5   3  385.91   25.46
  17   5   3  315.22   22.32
  17  -5   3  282.34   21.87
  17  -5   3  332.94   22.49
  17   5   3  296.48   25.97
  17  -5   3  393.19   26.78
  17   5   3  329.41   21.16
  17  -5   3  381.57   25.88
  17  -5   4   28.51    7.73
  17  -5   4    7.82    4.48
  17   5   4   12.53    5.50
  17  -5   4   16.80    5.73
  17   5   4   16.88    8.00
  17  -5   4   18.86    7.31
  17   5   4   17.10    4.85
  17  -5   4   14.67    6.49
  17  -5   5    2.23    4.95
  17  -5   5    2.32    3.67
  17   5   5    8.41    3.90
  17   5   5    1.50    5.80
  17  -5   5    4.84    5.49
  17   5   5    2.38    3.76
  17  -5   6  331.05   22.46
  17   5   6  214.88   17.95
  17  -5   6  231.24   16.71
  17   5   6  306.17   24.81
  17  -5   6  295.54   22.39
  17   5   6  288.39   19.40
  17  -5   7  176.75   16.77
  17   5   7  194.87   19.29
  17  -5   7  151.86   16.18
  17   5   7  174.20   15.24
  17  -5   8   10.65    4.86
  17   5   8   11.39    5.86
  17  -5   8    4.98    4.91
  17   5   8    2.27    3.74
  17  -5   9    0.90    3.79
  17   5   9    6.79    5.57
  17  -5   9   -0.91    4.11
  17   5   9    2.88    3.26
  17  -5   9    0.95    4.18
  17  -5  10   36.53    6.81
  17   5  10   34.08    7.28
  17  -5  10   40.00    6.93
  17   5  10   38.97    6.20
  17  -5  10   43.14    7.58
  17  -5  11  392.94   24.22
  17   5  11  413.54   25.03
  17  -5  11  398.38   24.01
  17   5  11  393.61   23.06
  17  -5  11  419.72   24.78
  17  -5  12   69.70    7.68
  17  -5  12   55.27    6.66
  17   5  12   51.64    6.12
  17  -5  12   78.42    8.03
  17  -5  13  929.94   45.25
  17   5  13  902.64   44.74
  17  -5  13 1004.14   46.55
  17   5  14    5.15    2.46
  17   5  15  337.42   17.51
  17  -5  16    2.97    1.77
  17  -7 -28   69.44    7.40
  17   7 -27    3.90    3.27
  17  -7 -27    5.29    4.20
  17   7 -26  284.29   19.79
  17   7 -25  176.74   15.30
  17  -7 -25  140.91   11.64
  17  -7 -24 1126.27   53.76
  17   7 -24 1008.59   56.89
  17  -7 -23  212.61   16.34
  17   7 -23  214.95   19.61
  17  -7 -23  173.73   18.46
  17  -7 -22  152.57   14.63
  17   7 -22  167.74   18.22
  17  -7 -22  171.18   18.52
  17  -7 -21    5.20    5.22
  17   7 -21   14.41    7.42
  17  -7 -21    6.85    7.40
  17  -7 -20   84.36   11.51
  17   7 -20   80.70   13.95
  17  -7 -20   90.22   15.09
  17  -7 -19   21.44    6.75
  17   7 -19   17.18    8.49
  17  -7 -19    9.81    8.29
  17  -7 -18    4.57    4.81
  17  -7 -18    3.13    2.91
  17   7 -18    3.43    7.03
  17  -7 -18   16.53    9.97
  17  -7 -17   17.15    6.63
  17  -7 -17    7.14    3.45
  17   7 -17    6.76    7.12
  17  -7 -17   12.96    9.10
  17  -7 -16   93.04   11.76
  17  -7 -16   68.26    8.06
  17   7 -16   78.83   13.07
  17  -7 -16   62.57   15.42
  17  -7 -15  162.77   15.30
  17  -7 -15  139.43   11.84
  17  -7 -15  123.32   19.79
  17  -7 -14   71.13   10.30
  17  -7 -14   62.79    7.98
  17  -7 -14   66.73   15.13
  17   7 -14   54.76    9.31
  17  -7 -13   46.45    8.70
  17  -7 -13   34.89    6.22
  17  -7 -13   38.76   13.30
  17   7 -13   39.40    8.16
  17  -7 -12   25.37    7.15
  17  -7 -12   27.05    5.59
  17   7 -12   29.63    9.00
  17  -7 -12   17.75    8.90
  17   7 -12   28.82    7.04
  17  -7 -11   16.35    4.85
  17   7 -11    7.35    6.53
  17  -7 -11   16.88    9.79
  17   7 -11   17.14    6.07
  17  -7 -10   38.81    6.80
  17   7 -10   27.79    8.22
  17  -7 -10   21.62    9.57
  17   7 -10   30.56    7.45
  17  -7  -9   14.64    6.19
  17   7  -9   21.93    8.38
  17  -7  -9   32.12    9.92
  17   7  -9   11.19    5.76
  17  -7  -8    3.40    4.65
  17   7  -8    2.94    5.85
  17   7  -8    4.41    4.12
  17  -7  -7   87.93   11.32
  17   7  -7   57.66   11.24
  17   7  -7   81.04   10.81
  17   7  -6  251.66   22.29
  17   7  -6  246.51   19.57
  17  -7  -6  249.84   20.08
  17  -7  -5  183.83   15.49
  17   7  -5  207.81   19.78
  17   7  -5  187.91   16.35
  17  -7  -5  166.19   16.43
  17  -7  -4   52.42    9.16
  17  -7  -4   49.48    8.22
  17   7  -4   50.39   10.36
  17   7  -4   58.37    8.64
  17  -7  -3   52.69    9.02
  17  -7  -3   44.81    8.06
  17   7  -3   51.66   10.79
  17   7  -3   57.87    8.18
  17  -7  -2    1.94    3.87
  17   7  -2    8.71    6.94
  17   7  -2    2.91    5.62
  17   7  -2    6.86    4.06
  17  -7  -1   13.91    5.00
  17   7  -1    6.93    6.49
  17   7  -1   11.38    6.88
  17  -7   0   24.33    6.55
  17   7   0   37.79   10.57
  17   7   0   40.21    9.27
  17  -7   1   87.50   11.03
  17  -7   1   91.25   10.45
  17   7   1  103.44   15.09
  17   7   1  105.93   13.61
  17  -7   2   50.75    8.71
  17  -7   2   59.46    7.91
  17   7   2   41.64   10.65
  17   7   2   53.80    9.83
  17  -7   3    4.11    5.44
  17  -7   3    7.56    3.71
  17   7   3    9.77    7.70
  17   7   3    9.69    6.08
  17  -7   4  202.30   16.99
  17   7   4  180.89   17.08
  17  -7   5   42.18    7.71
  17   7   5   48.20   10.42
  17   7   5   35.19    7.20
  17  -7   6  319.85   22.05
  17   7   6  351.29   26.59
  17  -7   7  212.28   16.46
  17   7   7  239.90   20.55
  17  -7   8 1130.98   57.26
  17   7   8 1227.20   62.06
  17  -7   9   69.34    8.15
  17   7   9   95.57   11.37
  17  -7  10  206.89   14.18
  17   7  10  198.61   16.04
  17  -7  11    5.23    2.68
  17   7  11    7.99    3.97
  17  -7  12    0.89    2.38
  17   7  12   -0.48    2.38
  17  -7  13   13.98    2.96
  17  -9 -24    4.55    3.50
  17  -9 -23    0.56    2.92
  17   9 -23    1.47    3.00
  17  -9 -23    5.65    4.40
  17  -9 -22    9.60    4.20
  17   9 -22   10.93    5.07
  17  -9 -22    8.58    5.06
  17  -9 -21   18.87    5.28
  17   9 -21   15.08    6.35
  17  -9 -21    3.28    5.09
  17   9 -20   99.66   13.35
  17  -9 -20  115.77   13.98
  17  -9 -19   -0.91    4.41
  17   9 -19    1.35    5.68
  17  -9 -19    4.10    5.75
  17  -9 -18  134.09   13.25
  17  -9 -18  140.23   11.16
  17   9 -18  152.34   16.69
  17  -9 -18  148.94   17.15
  17  -9 -17  140.79   13.29
  17  -9 -17  100.70    9.60
  17   9 -17  123.41   15.85
  17  -9 -17  102.74   14.98
  17  -9 -16  166.58   14.51
  17  -9 -16  134.85   11.58
  17   9 -16  167.64   18.15
  17  -9 -16  156.72   18.89
  17  -9 -15   51.67    8.58
  17  -9 -15   54.52    7.04
  17   9 -15   37.62   10.08
  17  -9 -15   51.50   12.42
  17  -9 -14  142.72   11.74
  17   9 -14  136.72   16.44
  17  -9 -14  141.35   18.31
  17  -9 -13   23.69    5.40
  17   9 -13   23.49    8.45
  17  -9 -13   37.91   11.07
  17  -9 -12  194.93   16.25
  17   9 -12  204.77   19.71
  17  -9 -12  185.59   21.04
  17  -9 -11    6.75    4.37
  17  -9 -11    6.61    7.31
  17  -9 -10  454.63   26.28
  17  -9 -10  289.10   26.95
  17  -9  -9    0.98    4.34
  17   9  -9   -1.55    6.70
  17  -9  -9    4.05    5.04
  17   9  -8  281.50   25.35
  17   9  -8  294.91   24.15
  17  -9  -8  293.55   20.99
  17  -9  -7    0.98    4.01
  17   9  -7    9.38    7.39
  17   9  -7    5.76    6.37
  17   9  -6   95.69   14.09
  17   9  -6  119.34   14.69
  17  -9  -6   90.22   10.90
  17   9  -5  109.27   14.37
  17  -9  -5   89.67   10.80
  17  -9  -4   66.00    8.90
  17   9  -4   51.83   10.78
  17   9  -3   39.16    9.86
  17   9  -3   18.34    6.75
  17   9  -2  435.32   31.94
  17   9  -2  422.75   30.20
  17  -9  -1    3.36    3.44
  17   9  -1   18.37    8.10
  17   9  -1   10.72    6.07
  17   9   0  740.77   43.75
  17   9   1  100.25   12.71
  17   9   2  705.85   41.05
  17   9   3   12.56    5.37
  17  -9   4   95.05    9.12
  17   9   4  133.28   12.43
  17  -9   5    1.07    2.62
  17   9   5    6.91    5.56
  17   9   5   -1.55    3.43
  17  -9   6   33.74    4.72
  17   9   6   40.35    7.47
  17  -9   7    2.05    2.13
  17   9   7    8.13    4.85
  17  -9   8   25.21    3.52
  17   9   8   34.15    6.32
  17   9   9    9.64    3.79
  17   9  10   16.44    3.54
  17 -11 -19   11.00    3.35
  17  11 -18   22.99    5.07
  17  11 -17   83.59    9.70
  17 -11 -17   78.97    8.55
  17 -11 -16   29.27    5.76
  17  11 -16   27.94    5.54
  17  11 -16   32.11    6.81
  17 -11 -16   27.79    5.74
  17 -11 -15    6.37    3.81
  17  11 -15   10.48    4.99
  17  11 -15   -1.03    4.66
  17 -11 -15    3.12    3.62
  17 -11 -14   33.17    5.94
  17  11 -14   48.35    8.06
  17  11 -14   36.66    8.03
  17  11 -13  116.57   12.07
  17  11 -13  114.87   12.17
  17 -11 -13  146.25   10.62
  17 -11 -12   38.38    6.20
  17  11 -12   29.71    7.13
  17  11 -12   33.21    7.32
  17  11 -11   78.43   11.41
  17  11 -11  111.15   12.47
  17 -11 -11  100.44    9.67
  17 -11 -10    5.19    3.44
  17  11 -10    7.85    5.08
  17  11 -10    3.26    4.70
  17  11  -9  226.57   18.56
  17  11  -9  202.65   17.48
  17 -11  -9  202.65   14.47
  17 -11  -8   50.86    6.43
  17  11  -8   59.62    9.56
  17  11  -7  354.78   24.78
  17  11  -6  137.94   14.15
  17  11  -5  241.41   16.21
  17  11  -5  290.67   17.07
  17  11  -4  199.71   17.29
  17  11  -4  218.25   17.26
  17  11  -3  309.24   21.83
  17  11  -3  289.38   20.86
  17  11  -2   21.13    5.92
  17  11  -2   17.97    5.61
  17  11  -1    0.92    4.35
  17  11  -1    0.85    4.10
  17  11   0   12.18    5.07
  17  11   0   14.14    4.71
  17  11   1    0.81    3.83
  17  11   1    4.94    3.54
  17  11   2    2.95    3.90
  17  11   2    1.21    2.79
  17  11   3    4.58    3.41
  17  11   4   25.16    4.67
  17  11   5  165.43   11.24
  18   0 -32  208.29   13.06
  18   0 -31   -1.73    3.10
  18   0 -30  652.45   33.14
 -18   0  30  572.45   30.15
 -18   0  29    3.73    2.82
  18   0 -29    5.01    3.51
  18   0 -28  417.86   25.94
 -18   0  28  383.11   22.64
 -18   0  27   -0.65    3.52
  18   0 -27    6.26    4.39
  18   0 -26   49.06    9.10
 -18   0  26   46.79    6.97
  18   0 -25   -5.81    5.14
 -18   0  25   -0.73    3.80
  18   0 -24  405.18   26.83
 -18   0  24  351.46   22.68
  18   0 -23   -1.68    6.87
  18   0 -23   -1.19    4.58
  18   0 -22   22.05    8.72
  18   0 -22   25.79    7.49
  18   0 -21   -1.69    5.90
  18   0 -21   -1.15    4.83
  18   0 -20  282.07   21.46
  18   0 -20  278.03   25.09
  18   0 -19   -3.26    6.87
  18   0 -19    1.09    3.93
  18   0 -18  134.54   13.72
  18   0 -18  139.65   17.00
  18   0 -18  143.71   15.07
  18   0 -17   -1.48    5.16
  18   0 -17   -2.06    4.56
  18   0 -17   -1.15    4.72
  18   0 -16    9.64    6.52
  18   0 -16    6.02    5.23
  18   0 -16    6.58    5.09
  18   0 -15   -2.52    4.54
  18   0 -15    2.93    4.22
  18   0 -15    8.28    5.19
  18   0 -14   64.41    9.88
  18   0 -14   58.31    8.60
  18   0 -14   52.08    8.27
  18   0 -13    2.56    3.59
  18   0 -13    1.00    3.87
  18   0 -13    2.81    3.83
  18   0 -13    4.45    3.84
  18   0 -12  242.29   17.44
  18   0 -12  220.87   17.34
  18   0 -12  193.77   16.80
  18   0 -11   -0.83    3.22
  18   0 -11    1.80    3.79
  18   0 -11    4.37    3.45
  18   0 -10  645.24   34.87
  18   0 -10  575.27   34.55
  18   0 -10  635.69   33.03
  18   0  -9    3.38    2.71
  18   0  -9    3.50    3.49
  18   0  -9    0.57    2.35
  18   0  -8   29.15    5.76
  18   0  -8   22.62    5.34
  18   0  -8   22.48    3.96
  18   0  -7    1.74    3.36
  18   0  -7   -3.95    4.77
  18   0  -7   -1.74    4.19
  18   0  -7    0.76    3.03
  18   0  -7   -0.43    1.76
  18   0  -6  126.16   12.77
  18   0  -6  131.00   12.17
  18   0  -6  130.66   12.26
  18   0  -6  138.90   12.48
  18   0  -5   -3.93    4.83
  18   0  -5    3.96    4.27
  18   0  -5    5.22    3.25
  18   0  -5    3.27    3.44
  18   0  -4   40.19    8.06
  18   0  -4   41.05    7.14
  18   0  -4   48.58    7.60
  18   0  -3    0.98    4.02
  18   0  -3   -3.04    4.69
  18   0  -3    1.76    3.51
  18   0  -3    2.58    4.06
  18   0  -2  613.28   33.49
  18   0  -2  505.00   31.99
  18   0  -2  575.31   32.40
  18   0  -2  564.98   32.05
  18   0  -2  495.88   29.63
  18   0  -1    1.98    4.28
  18   0  -1    7.30    4.32
  18   0  -1    4.57    4.42
  18   0  -1   12.71    4.46
  18   0   0 1805.90   87.62
  18   0   0 1808.63   87.10
  18   0   0 1830.97   85.73
  18   0   1   17.10    6.46
  18   0   1    8.85    5.05
  18   0   2 1626.92   76.23
  18   0   2 1358.23   74.10
  18   0   2 1618.98   77.29
  18   0   2 1567.53   75.83
  18   0   3    7.11    5.66
  18   0   3   10.60    6.66
  18   0   3    7.28    5.70
  18   0   4  840.39   43.74
  18   0   4  810.50   44.63
  18   0   4  824.00   43.90
  18   0   4  804.33   41.54
  18   0   5    1.67    3.43
  18   0   5    7.00    5.38
  18   0   5   11.26    3.30
  18   0   5    1.18    5.09
  18   0   5    1.04    4.51
  18   0   6   58.57    9.34
  18   0   6   67.59    9.85
  18   0   6   54.84    8.02
  18   0   6   42.01    8.52
  18   0   7   -2.82    4.36
  18   0   7   -4.41    5.63
  18   0   7   -0.82    2.85
  18   0   7    6.96    5.08
  18   0   8   19.64    5.53
  18   0   8   15.85    4.75
  18   0   8   35.28    7.49
  18   0   8   28.64    6.45
  18   0   9    3.33    4.17
  18   0   9  156.17   12.43
  18   0  10   67.81    9.37
  18   0  10  503.26   21.51
  18   0  11    7.49    3.84
  18   0  12 1465.64   71.02
  18   0  12 1627.06   73.11
  18   0  13   11.70    3.59
  18   0  13   16.85    5.27
  18   0  13   11.75    4.70
  18   0  14  932.83   23.34
  18   0  14  939.26   22.91
  18   0  15    4.13    3.04
  18   0  15    5.45    3.10
  18   0  16   72.49    6.66
  18   0  16   73.96    6.54
  18   0  17    0.94    1.56
  18   0  17   -0.59    1.79
  18  -2 -31   51.15    5.96
  18   2 -31   55.36    6.19
  18  -2 -30   17.15    4.24
  18   2 -30   17.44    4.60
 -18   2  29    0.53    3.04
 -18  -2  29    1.48    3.05
  18  -2 -29    2.95    4.08
  18   2 -29    1.48    4.29
  18  -2 -28  120.37   11.98
  18   2 -28  126.80   12.32
 -18   2  28  134.67   10.97
 -18  -2  28  135.11   10.62
 -18   2  27   55.87    7.41
 -18  -2  27   57.94    7.07
  18  -2 -27   58.29    8.75
  18   2 -27   55.93    8.87
 -18  -2  26   33.52    5.92
  18  -2 -26   27.21    7.05
  18   2 -26   32.87    7.51
  18  -2 -25    6.47    7.65
  18  -2 -25    3.15    4.64
  18   2 -25    1.09    4.92
 -18   2  25    0.75    3.61
 -18  -2  25    6.35    3.97
  18  -2 -24  172.98   16.14
  18   2 -24  169.61   16.31
  18  -2 -24  207.69   21.33
 -18   2  24  205.39   15.20
 -18  -2  24  206.68   14.97
  18  -2 -23   52.81   12.13
  18  -2 -23   60.84    9.46
  18   2 -23   52.45    9.12
 -18   2  23   59.12    7.97
 -18  -2  23   53.72    7.44
  18  -2 -22   57.34   12.06
  18  -2 -22   53.79    8.43
  18   2 -22   46.72    8.93
  18  -2 -21   30.57    9.72
  18  -2 -21   19.67    5.57
  18   2 -21   28.15    7.36
  18  -2 -20  525.26   33.10
  18   2 -20  618.88   35.38
  18  -2 -20  545.60   39.43
  18   2 -20  563.92   34.95
  18  -2 -19   23.61    6.67
  18  -2 -19   40.22   10.78
  18  -2 -19   42.75    7.70
  18   2 -19   52.69    8.75
  18   2 -19   26.91    7.29
  18  -2 -18  503.55   32.35
  18   2 -18  564.25   33.87
  18  -2 -18  591.87   39.68
  18   2 -18  565.50   34.61
  18  -2 -18  599.00   35.19
  18  -2 -17  219.09   17.60
  18   2 -17  217.25   17.85
  18  -2 -17  232.81   22.31
  18   2 -17  235.23   19.29
  18  -2 -17  241.30   19.45
  18  -2 -16  453.74   28.74
  18   2 -16  484.27   29.51
  18  -2 -16  492.93   34.29
  18   2 -16  469.89   30.34
  18  -2 -16  470.41   30.54
  18  -2 -15   19.14    6.72
  18  -2 -15    4.32    5.58
  18  -2 -15   18.78    5.31
  18   2 -15   20.25    5.76
  18   2 -15    4.35    4.72
  18  -2 -14  151.04   12.80
  18   2 -14  149.02   12.68
  18  -2 -14  125.47   12.48
  18   2 -14  118.07   12.41
  18  -2 -14  121.79   14.71
  18   2 -14  152.99   14.26
  18  -2 -14   97.34   12.47
  18  -2 -13   -1.09    4.57
  18  -2 -13    1.69    3.16
  18   2 -13    3.38    3.27
  18  -2 -13    2.40    4.77
  18  -2 -13    2.75    3.76
  18   2 -13    1.85    4.10
  18   2 -13    4.07    4.81
  18  -2 -12    8.57    5.28
  18  -2 -12   10.14    4.26
  18   2 -12    7.60    4.09
  18  -2 -12   10.66    5.16
  18  -2 -12    7.24    4.38
  18   2 -12    8.23    4.60
  18   2 -12    7.81    5.09
  18  -2 -11  242.37   16.85
  18   2 -11  216.77   16.32
  18   2 -11  178.62   16.75
  18  -2 -11  204.61   16.46
  18   2 -11  217.83   17.02
  18   2 -11  231.56   17.41
  18  -2 -11  216.01   18.11
  18  -2 -10  147.10   13.05
  18   2 -10  150.95   13.37
  18   2 -10  153.72   14.62
  18  -2 -10  140.72   13.10
  18   2 -10  170.96   14.14
  18   2 -10  161.12   13.84
  18  -2 -10  171.62   15.33
  18  -2  -9  126.78   11.32
  18   2  -9  113.28   10.98
  18   2  -9   86.13   10.87
  18  -2  -9  103.18   10.65
  18   2  -9  103.11   10.56
  18   2  -9  106.53   10.66
  18  -2  -9   93.76   11.43
  18  -2  -8  302.52   19.92
  18   2  -8  305.12   20.25
  18  -2  -8  302.31   21.04
  18   2  -8  283.88   20.81
  18  -2  -8  278.75   19.75
  18   2  -8  276.22   19.78
  18   2  -8  303.09   19.10
  18  -2  -8  236.64   20.09
  18  -2  -7  844.99   44.99
  18   2  -7  700.53   43.30
  18  -2  -7  816.21   43.39
  18   2  -7  835.40   43.88
  18   2  -7  825.40   41.67
  18  -2  -7  790.14   44.92
  18  -2  -7  887.91   44.17
  18   2  -7  873.47   44.46
  18  -2  -6 1238.47   63.11
  18   2  -6 1150.63   61.97
  18  -2  -6 1173.18   61.26
  18   2  -6 1299.50   62.40
  18  -2  -6 1269.42   62.86
  18   2  -6 1319.18   59.32
  18  -2  -5 1256.99   60.87
  18   2  -5 1013.93   58.30
  18  -2  -5 1264.62   59.36
  18   2  -5 1145.35   58.83
  18  -2  -5 1249.46   60.58
  18  -2  -5 1178.14   57.48
  18  -2  -4  383.95   24.91
  18   2  -4  336.33   23.42
  18  -2  -4  334.37   22.93
  18   2  -4  407.50   24.53
  18  -2  -4  375.74   24.94
  18   2  -4  409.99   23.04
  18  -2  -4  334.98   22.34
  18  -2  -3  578.76   33.20
  18   2  -3  471.19   30.76
  18  -2  -3  567.83   31.66
  18   2  -3  529.60   31.60
  18  -2  -3  583.60   33.25
  18   2  -3  510.42   29.91
  18  -2  -3  570.71   31.15
  18   2  -2   45.17    7.89
  18  -2  -2   46.23    8.46
  18   2  -2   38.16    7.21
  18  -2  -2   48.41    8.90
  18   2  -2   58.15    9.00
  18  -2  -2   42.59    7.46
  18   2  -2   53.07    8.09
  18  -2  -2   43.04    8.14
  18   2  -2   41.61    6.76
  18  -2  -2   42.58    6.91
  18   2  -1   40.42    7.40
  18  -2  -1   38.79    8.02
  18   2  -1   45.31    6.65
  18  -2  -1   38.45    8.26
  18   2  -1   38.07    7.83
  18  -2  -1   40.18    8.02
  18   2  -1   38.05    6.85
  18  -2  -1   42.63    7.12
  18   2   0  447.70   27.80
  18   2   0  363.31   25.50
  18  -2   0  463.42   28.85
  18   2   0  408.88   28.18
  18  -2   0  480.48   29.58
  18   2   0  468.60   27.32
  18  -2   0  480.05   28.21
  18   2   1    0.94    4.27
  18   2   1   13.55    3.47
  18  -2   1    4.34    5.35
  18  -2   1    2.26    4.77
  18   2   1    0.89    3.75
  18  -2   1    9.02    4.94
  18   2   2   38.45    7.09
  18   2   2   40.67    5.90
  18  -2   2   39.41    7.59
  18   2   2   35.78    8.12
  18  -2   2   31.50    7.47
  18   2   2   43.42    7.43
  18  -2   2   41.04    8.04
  18   2   3   49.20    8.12
  18  -2   3   47.45    8.44
  18   2   3   59.70   10.26
  18  -2   3   53.60    9.64
  18   2   3   66.57    9.13
  18  -2   3   70.86   10.05
  18   2   4  169.06   14.69
  18  -2   4  176.56   16.27
  18  -2   4  133.11   13.71
  18   2   4  173.18   16.10
  18  -2   4  172.04   16.02
  18   2   4  163.43   14.63
  18  -2   4  184.14   16.47
  18   2   5 1042.04   54.53
  18  -2   5 1109.23   57.88
  18  -2   5  832.78   52.76
  18   2   5  954.29   55.94
  18  -2   5  981.35   56.04
  18   2   5 1021.34   55.14
  18  -2   5 1143.66   57.69
  18   2   6  315.03   20.38
  18  -2   6  307.99   22.46
  18  -2   6  230.11   17.78
  18   2   6  310.48   22.16
  18  -2   6  289.35   21.35
  18  -2   6  311.07   22.76
  18   2   6  306.67   21.23
  18  -2   6  291.23   19.68
  18  -2   6  318.73   22.68
  18   2   7  886.86   44.64
  18  -2   7 1019.57   48.95
  18  -2   7  679.26   41.55
  18   2   7  862.78   46.80
  18  -2   7  806.63   45.99
  18  -2   7  972.04   48.83
  18   2   7  863.39   45.81
  18  -2   7  889.55   44.58
  18   2   7  853.66   44.51
  18  -2   7 1044.02   49.14
  18   2   8  442.57   28.48
  18  -2   8  489.17   31.64
  18   2   8  487.08   30.90
  18  -2   8  453.33   30.29
  18  -2   8  462.71   31.30
  18   2   8  452.60   29.94
  18  -2   8  460.16   30.97
  18   2   9  249.35   18.25
  18  -2   9  294.53   21.57
  18   2   9  546.88   25.55
  18  -2   9  526.42   24.92
  18  -2   9  294.68   21.89
  18   2   9  239.41   19.64
  18  -2   9  300.43   21.51
  18  -2  10   -0.88    3.97
  18  -2  10    2.70    3.99
  18   2  10   -2.44    4.22
  18  -2  10   -2.64    4.07
  18  -2  11    1.59    3.98
  18  -2  11    7.43    4.72
  18   2  11    1.52    3.66
  18  -2  11    5.67    4.14
  18  -2  12    1.40    3.32
  18  -2  12    5.96    3.88
  18   2  12    0.70    3.64
  18  -2  12    1.47    3.68
  18  -2  13  104.67    9.54
  18  -2  13   98.39    9.74
  18   2  13  108.24    9.71
  18  -2  14   96.47    8.20
  18  -2  14   85.97    8.45
  18   2  14   91.61    8.41
  18  -2  15    6.05    2.58
  18  -2  15    2.83    2.50
  18   2  15    3.31    2.66
  18   2  15    0.44    2.36
  18  -2  16   31.79    4.06
  18   2  16   26.37    3.94
  18   2  16   33.97    4.09
  18  -2  17   17.02    2.62
  18   4 -30    6.61    4.26
  18  -4 -29   43.48    5.38
  18   4 -29   58.98    6.42
  18  -4 -28   -1.82    3.76
  18   4 -28    4.31    2.79
  18  -4 -27  195.66   15.37
  18   4 -27  203.11   15.50
 -18   4  27  228.27   14.62
 -18  -4  27  238.96   14.61
 -18   4  26   -3.03    3.10
 -18  -4  26   -4.10    3.79
  18  -4 -26   -2.51    3.95
  18   4 -26    1.61    4.53
  18  -4 -25   84.64   10.18
  18  -4 -25   67.79   12.24
  18   4 -25   71.91    9.47
 -18   4  25   71.68    8.33
 -18  -4  25   80.06    8.41
  18  -4 -24   -3.19    7.37
  18  -4 -24   -2.87    4.53
  18   4 -24   -1.86    4.84
 -18   4  24   -2.08    4.24
 -18  -4  24   -0.67    3.79
  18  -4 -23  215.49   17.50
  18   4 -23  209.11   17.07
  18  -4 -23  175.81   20.53
 -18   4  23  224.57   15.70
 -18  -4  23  218.34   15.45
  18  -4 -22    2.06    4.45
  18  -4 -22    7.04    7.60
  18  -4 -22    1.97    5.03
  18   4 -22    0.99    4.38
 -18   4  22    2.22    4.04
 -18  -4  22    6.45    4.15
  18  -4 -21  402.45   26.93
  18  -4 -21  370.57   25.21
  18   4 -21  405.08   26.09
  18  -4 -21  377.97   31.44
 -18  -4  21  399.96   23.84
  18  -4 -20   72.49   10.78
  18  -4 -20   82.85    9.10
  18  -4 -20   86.14   14.93
  18  -4 -20   62.78    9.31
  18   4 -20   77.71   10.13
  18  -4 -19   85.96   11.35
  18  -4 -19   65.86    8.91
  18  -4 -19   86.08    9.11
  18  -4 -19   73.43   13.75
  18  -4 -19   71.37    9.63
  18   4 -19   69.13    9.72
  18  -4 -18   -2.38    5.51
  18  -4 -18    5.26    3.79
  18   4 -18   -0.89    3.55
  18  -4 -18   -3.64    7.24
  18  -4 -18   -0.76    3.67
  18  -4 -18   -4.69    5.28
  18   4 -18   -0.98    4.52
  18   4 -18   -1.17    4.66
  18  -4 -17  281.91   21.59
  18  -4 -17  268.42   18.62
  18   4 -17  265.45   18.96
  18  -4 -17  239.50   18.42
  18   4 -17  244.34   18.91
  18  -4 -17  238.93   24.15
  18   4 -17  237.26   19.96
  18  -4 -16   -1.18    5.21
  18  -4 -16    8.59    3.80
  18   4 -16    0.87    3.46
  18  -4 -16    1.73    6.24
  18  -4 -16    0.92    3.44
  18   4 -16    2.85    4.10
  18   4 -16    3.38    4.36
  18  -4 -15  178.94   16.74
  18  -4 -15  185.19   14.94
  18   4 -15  177.80   14.71
  18  -4 -15  177.43   15.02
  18   4 -15  166.99   14.92
  18  -4 -15  150.90   18.77
  18   4 -15  184.08   16.37
  18  -4 -14    4.57    4.94
  18  -4 -14    0.86    3.43
  18   4 -14   11.25    4.65
  18  -4 -14    6.27    6.05
  18  -4 -14    3.61    3.80
  18   4 -14    8.36    4.40
  18   4 -14    8.59    5.08
  18  -4 -13 2178.42   99.28
  18  -4 -13 2081.92   96.03
  18   4 -13 2090.16   96.01
  18  -4 -13 2006.69   95.93
  18   4 -13 1986.52   96.11
  18  -4 -13 1936.32  101.03
  18   4 -13 2006.64   97.57
  18  -4 -12   83.61   11.16
  18  -4 -12   85.79   10.16
  18   4 -12   90.63   10.24
  18  -4 -12   86.47   10.42
  18   4 -12  112.03   11.27
  18  -4 -12   80.31   12.42
  18  -4 -11  945.81   50.85
  18  -4 -11  954.27   48.76
  18   4 -11  918.83   48.39
  18  -4 -11  890.65   48.17
  18   4 -11  953.32   48.98
  18  -4 -11  822.29   50.30
  18   4 -11 1051.97   50.53
  18  -4 -10  150.08   13.47
  18   4 -10  158.63   13.92
  18  -4 -10  150.09   13.56
  18   4 -10  168.17   14.20
  18   4 -10  166.32   16.41
  18   4 -10  173.80   14.89
  18  -4 -10  162.30   15.39
  18  -4  -9  385.06   23.83
  18   4  -9  404.67   24.40
  18   4  -9  449.13   28.41
  18   4  -9  408.05   24.67
  18  -4  -9  372.81   23.72
  18   4  -9  358.37   23.61
  18  -4  -9  409.20   26.39
  18  -4  -8    1.10    4.14
  18  -4  -8   10.15    4.91
  18   4  -8   16.86    3.75
  18   4  -8    7.09    4.99
  18  -4  -8    4.17    3.87
  18   4  -8    7.78    4.10
  18   4  -8    7.78    4.19
  18  -4  -7   14.24    5.33
  18   4  -7   24.11    4.53
  18   4  -7   22.93    6.58
  18  -4  -7   11.56    4.56
  18   4  -7   14.50    4.85
  18   4  -7   12.96    4.54
  18  -4  -6   -2.05    4.42
  18  -4  -6    1.64    3.27
  18   4  -6    1.12    4.45
  18   4  -6    4.22    3.16
  18   4  -6   -0.75    3.08
  18  -4  -5  125.96   13.09
  18   4  -5  130.49   11.84
  18  -4  -5  102.82   11.19
  18   4  -5  138.04   12.26
  18   4  -5  111.58   12.83
  18   4  -5  122.11   10.76
  18  -4  -5  120.22   13.22
  18  -4  -4   24.02    6.65
  18  -4  -4   28.16    6.83
  18  -4  -4   27.38    6.00
  18   4  -4   35.45    6.67
  18   4  -4   26.83    6.78
  18   4  -4   26.00    4.77
  18  -4  -3   40.26    8.26
  18   4  -3   47.43    8.53
  18  -4  -2   23.77    6.60
  18   4  -2   28.58    8.48
  18  -4  -2   19.03    6.09
  18  -4  -1  452.03   31.55
  18  -4  -1  404.61   30.44
  18   4  -1  394.31   32.50
  18  -4  -1  474.67   32.74
  18  -4  -1  456.64   31.27
  18  -4   0   40.68    8.43
  18  -4   0   17.94    6.70
  18  -4   0   25.93    7.08
  18   4   0   33.61    7.60
  18   4   0   39.88    8.99
  18  -4   0   38.84    8.83
  18  -4   0   26.25    7.54
  18  -4   1 1985.84   91.04
  18  -4   1 1650.41   87.48
  18   4   1 1762.30   88.45
  18  -4   1 1898.06   89.04
  18   4   1 1904.16   93.01
  18  -4   1 1824.01   91.22
  18   4   1 1839.01   85.82
  18  -4   1 1873.45   90.01
  18  -4   2    3.49    5.29
  18   4   2   20.18    6.50
  18  -4   2   12.29    6.03
  18  -4   2   11.80    6.14
  18   4   2   12.62    6.07
  18  -4   2   11.58    7.04
  18   4   2   12.77    4.51
  18  -4   2    5.84    5.19
  18  -4   3   59.48    9.84
  18  -4   3   37.23    7.32
  18   4   3   52.48    8.85
  18  -4   3   45.41    8.48
  18   4   3   44.21    9.47
  18  -4   3   55.18   10.57
  18   4   3   59.76    8.16
  18  -4   3   48.55    9.65
  18  -4   4   -2.31    4.98
  18  -4   4   -2.73    4.65
  18   4   4   -2.02    4.78
  18  -4   4   -1.03    5.43
  18   4   4    8.08    6.24
  18  -4   4    1.26    6.09
  18   4   4    0.85    3.68
  18  -4   4    3.54    5.22
  18  -4   5   41.66    8.40
  18  -4   5   27.52    6.06
  18   4   5   34.75    6.80
  18  -4   5   36.01    6.85
  18   4   5   20.76    7.22
  18  -4   5   36.58    8.84
  18   4   5   35.06    6.75
  18  -4   5   40.53    8.11
  18  -4   6   67.23   10.04
  18  -4   6   61.37    6.80
  18   4   6   74.49    9.62
  18  -4   6   80.59    9.74
  18   4   6   53.80    9.84
  18  -4   6   66.18   10.46
  18   4   6   62.68    8.67
  18  -4   6   65.80   10.08
  18  -4   7  608.14   34.67
  18   4   7  575.86   31.80
  18   4   7  631.06   35.43
  18  -4   7  661.56   35.49
  18   4   7  604.55   32.31
  18  -4   7  648.03   35.15
  18  -4   8    5.81    4.96
  18   4   8    2.97    3.84
  18  -4   8    1.00    4.13
  18   4   8    3.16    3.60
  18  -4   8    0.99    4.68
  18   4   9   52.62    7.81
  18  -4   9   55.05    8.43
  18   4   9   53.10    7.53
  18  -4  10    0.82    4.06
  18   4  10    4.85    3.78
  18  -4  11  360.23   22.25
  18   4  11  366.59   21.67
  18  -4  12   18.96    4.87
  18   4  12   26.94    4.89
  18  -4  12   14.40    4.50
  18  -4  13  615.78   31.53
  18  -4  13  596.95   31.02
  18   4  13  580.02   30.52
  18  -4  13  631.56   31.64
  18  -4  14    4.16    3.00
  18  -4  14    3.78    2.47
  18   4  14    2.81    2.49
  18  -4  14   10.76    3.35
  18  -4  15  451.15   20.44
  18   4  15  441.56   19.84
  18   6 -28    0.69    2.99
  18   6 -27  129.76   12.49
  18   6 -26   15.59    5.89
  18   6 -25   14.44    6.29
  18  -6 -25   19.00    7.10
  18   6 -24   99.25   13.19
  18  -6 -24   85.12   12.60
  18  -6 -24   83.61    9.58
  18  -6 -23   15.54    5.69
  18   6 -23   19.52    8.10
  18  -6 -23   17.55    8.02
  18  -6 -22   38.93    7.85
  18   6 -22   37.14   10.08
  18  -6 -22   25.27    8.61
  18  -6 -21   68.82   10.19
  18   6 -21   49.09   11.77
  18  -6 -21   40.45   10.54
  18  -6 -20  287.92   21.37
  18   6 -20  240.38   23.65
  18  -6 -20  209.30   22.96
  18  -6 -19   68.97   10.85
  18   6 -19   74.32   13.25
  18  -6 -19   64.71   13.44
  18  -6 -18  325.87   23.58
  18  -6 -18  223.03   24.30
  18  -6 -17  275.69   26.89
  18   6 -17  270.47   22.18
  18  -6 -16  494.15   31.71
  18  -6 -16  487.56   26.97
  18  -6 -16  476.78   36.80
  18   6 -16  438.83   30.48
  18  -6 -15   35.03    8.05
  18  -6 -15   35.54    6.01
  18   6 -15   30.93    8.96
  18  -6 -15   27.17   10.20
  18   6 -15   44.59    8.25
  18  -6 -14  161.75   16.14
  18  -6 -14  163.67   12.88
  18   6 -14  148.72   17.11
  18  -6 -14  138.51   18.56
  18   6 -14  146.98   14.91
  18  -6 -13   16.62    6.24
  18  -6 -13   21.44    5.23
  18   6 -13   17.61    7.00
  18  -6 -13   27.40    9.70
  18   6 -13   29.02    6.88
  18  -6 -12   10.64    5.97
  18   6 -12   17.30    7.39
  18  -6 -12   25.81    9.42
  18   6 -12   13.21    6.04
  18  -6 -11  157.20   15.58
  18   6 -11  142.46   16.60
  18  -6 -11  144.50   17.35
  18   6 -11  185.25   16.10
  18   6 -10   82.16   12.46
  18   6 -10   88.13   11.11
  18   6  -9   77.37   11.84
  18   6  -9   79.75   10.39
  18   6  -8  134.72   15.88
  18   6  -8  137.17   13.84
  18  -6  -8  139.64   14.80
  18   6  -7  215.01   19.70
  18   6  -7  197.40   16.72
  18  -6  -7  208.32   18.41
  18  -6  -6  718.27   38.66
  18   6  -6  676.27   41.49
  18   6  -6  637.47   37.18
  18  -6  -6  647.99   39.21
  18  -6  -5  278.52   20.30
  18   6  -5  274.50   22.64
  18   6  -5  299.96   19.90
  18  -6  -5  218.75   19.77
  18  -6  -4  276.92   19.89
  18   6  -4  276.69   24.68
  18   6  -4  208.31   20.23
  18   6  -4  229.85   17.29
  18  -6  -4  241.38   19.58
  18  -6  -3  404.51   27.64
  18  -6  -3  448.48   27.13
  18   6  -3  497.78   34.38
  18   6  -3  436.88   30.51
  18  -6  -2    9.35    5.31
  18  -6  -2    4.38    4.56
  18   6  -2    1.67    6.82
  18   6  -2    2.62    4.73
  18  -6  -1   77.07   10.44
  18  -6  -1   67.87    8.96
  18   6  -1   95.67   14.03
  18   6  -1   62.18   10.48
  18  -6   0  178.67   15.78
  18  -6   0  147.01   13.38
  18  -6   0  170.62   15.04
  18   6   0  165.06   18.43
  18   6   0  171.03   16.67
  18  -6   1   -1.08    4.65
  18  -6   1    0.93    4.60
  18  -6   1    2.38    3.91
  18   6   1   -1.61    6.59
  18   6   1    2.33    5.02
  18  -6   2  178.07   15.82
  18  -6   2  140.10   12.61
  18  -6   2  163.08   14.02
  18   6   2  139.71   14.72
  18  -6   3   15.81    5.45
  18  -6   3   17.20    5.02
  18   6   3   19.97    7.46
  18  -6   4   52.97    9.17
  18  -6   4   43.60    6.72
  18   6   4   57.74   11.37
  18  -6   5  599.95   34.82
  18   6   5  577.98   38.01
  18  -6   6  148.03   13.47
  18   6   6  127.00   15.09
  18  -6   7  660.55   23.32
  18   6   7  690.58   28.45
  18  -6   8  216.83   13.17
  18   6   8  221.76   15.60
  18  -6   9  306.94   14.67
  18   6   9  355.99   17.89
  18  -6  10    8.00    3.57
  18   6  10   13.19    4.74
  18   6  10    0.38    0.81
  18   6  11    0.50    0.83
  18   6  11   -0.31    0.43
  18  -6  12   75.60    7.12
  18  -6  13  106.08    7.97
  18  -6  14   53.44    4.72
  18  -8 -26    1.60    2.68
  18   8 -25    4.01    3.54
  18  -8 -25    1.39    3.37
  18   8 -24   65.40    8.68
  18  -8 -24   71.93    9.27
  18  -8 -24   64.17    7.11
  18  -8 -23    3.44    3.51
  18   8 -23    2.00    4.92
  18  -8 -23   -1.97    4.76
  18  -8 -22    3.21    4.10
  18   8 -22    8.03    5.54
  18  -8 -22    1.12    5.07
  18  -8 -21   -0.89    4.40
  18   8 -21    2.57    5.25
  18  -8 -21   -3.75    5.39
  18  -8 -20    7.69    4.82
  18   8 -20   -2.77    5.67
  18  -8 -20    4.11    5.92
  18  -8 -19    1.01    4.45
  18   8 -19    8.73    6.74
  18  -8 -19    4.46    5.55
  18  -8 -18  157.11   14.72
  18   8 -18  168.77   17.96
  18  -8 -18  132.93   17.14
  18  -8 -17    2.07    5.48
  18   8 -17   10.57    7.57
  18  -8 -17    1.67    7.20
  18  -8 -16   24.86    6.92
  18   8 -16   19.50    7.72
  18  -8 -16   24.18   10.05
  18  -8 -15    9.29    5.56
  18  -8 -15    5.27    7.20
  18  -8 -14   84.71   10.77
  18  -8 -14   64.85   13.07
  18  -8 -13    1.70    6.98
  18  -8 -12  277.49   25.01
  18   8 -11   27.21    8.19
  18  -8 -11    2.98    5.39
  18   8 -10  308.02   24.77
  18  -8 -10  276.11   23.53
  18  -8 -10  328.43   22.75
  18  -8  -9   24.66    7.36
  18   8  -9   14.44    7.42
  18  -8  -8   68.79    9.96
  18   8  -8   71.02   11.66
  18  -8  -7    4.27    4.50
  18   8  -7    4.95    7.30
  18   8  -7   10.22    7.59
  18   8  -6  150.77   18.09
  18   8  -6  135.45   16.05
  18  -8  -6  152.16   14.41
  18  -8  -5    6.08    4.69
  18   8  -5    5.80    6.57
  18   8  -4  133.21   15.60
  18  -8  -4  111.69   12.10
  18  -8  -3    2.43    3.50
  18   8  -3    1.40    5.24
  18  -8  -2  539.63   30.71
  18   8  -2  510.06   34.61
  18  -8  -1   46.97    7.60
  18   8  -1   57.59   12.13
  18  -8  -1   36.67    6.66
  18  -8   0 1363.22   63.71
  18  -8   0 1168.10   61.05
  18   8   0 1392.24   71.33
  18   8   0 1316.23   67.32
  18  -8   1  139.20   12.63
  18  -8   1  112.48   10.24
  18   8   1  143.96   16.53
  18   8   1  141.43   15.02
  18  -8   2  770.17   41.12
  18   8   2  801.91   47.03
  18   8   2  743.89   43.00
  18  -8   3    5.59    4.63
  18   8   3    5.54    6.13
  18   8   3    1.93    4.06
  18  -8   4   34.69    6.19
  18   8   4   24.64    8.02
  18  -8   5    7.67    3.75
  18   8   5   -1.19    5.40
  18  -8   6  131.65   11.23
  18   8   6  150.42   14.60
  18  -8   7    2.78    2.69
  18   8   7    6.48    5.29
  18  -8   8    9.12    3.20
  18   8   8   10.81    4.79
  18  -8   9   -0.80    2.30
  18   8   9   -1.81    3.40
  18  -8  10   15.39    2.82
  18   8  10   13.01    3.20
  18 -10 -21    2.07    2.87
  18  10 -21    0.59    2.69
  18  10 -20   63.69    8.38
  18 -10 -20   78.87    8.39
  18 -10 -19    5.00    4.09
  18  10 -19    3.07    3.64
  18  10 -19    3.62    3.81
  18 -10 -19   10.16    4.44
  18 -10 -18   35.25    6.45
  18  10 -18   39.03    7.70
  18  10 -18   33.63    7.18
  18 -10 -18   34.04    6.76
  18 -10 -17    5.58    4.21
  18  10 -17    3.17    4.78
  18  10 -17    2.21    4.78
  18 -10 -17    0.88    3.98
  18  10 -16  122.75   13.99
  18  10 -16  130.30   14.16
  18 -10 -16  128.29   12.86
  18  10 -15   13.26    6.51
  18  10 -15   13.12    5.90
  18 -10 -15   15.98    5.55
  18 -10 -14    1.61    4.05
  18  10 -14    1.24    4.93
  18  10 -14   -1.21    5.08
  18 -10 -14    1.85    3.89
  18  10 -13  134.37   14.19
  18  10 -13  116.91   12.59
  18 -10 -13  117.00   10.24
  18  10 -12  105.64   12.05
  18 -10 -12  118.11   10.11
  18 -10 -11   30.94    6.08
  18  10 -11   18.90    6.96
  18 -10 -10    4.71    3.72
  18  10 -10    6.28    6.18
  18 -10  -9   12.35    4.90
  18  10  -9    3.75    5.13
  18 -10  -8    0.75    3.69
  18  10  -8   -1.24    5.24
  18  10  -8    1.17    4.64
  18 -10  -7   27.26    5.63
  18  10  -7   33.43    8.48
  18  10  -7   48.67    8.85
  18  10  -6  401.78   28.92
  18  10  -6  452.09   28.82
  18  10  -5   65.91   10.42
  18  10  -5   99.37   12.07
  18 -10  -4   24.58    4.67
  18  10  -4   42.24    8.74
  18  10  -4   44.09    8.21
  18 -10  -3   -0.96    1.32
  18  10  -3    1.19    4.99
  18  10  -2    2.32    4.87
  18  10  -2    5.14    4.44
  18  10  -1   -6.73    6.03
  18  10  -1    0.97    4.20
  18  10   0  263.45   20.47
  18  10   0  268.60   19.35
  18  10   1   22.38    6.79
  18  10   1   41.26    6.94
  18  10   2  206.94   15.21
  18  10   3    0.55    1.59
  18  10   5  135.08   11.39
  18  10   6  104.15    8.88
  18  12 -11  146.98   11.54
  18  12 -10   18.40    4.17
  18  12  -9   39.22    5.85
  18  12  -6    3.88    2.52
  18  12  -5  253.32   15.77
  19  -1 -32   -1.08    1.96
  19   1 -32    3.30    2.21
  19  -1 -31    3.54    3.05
  19   1 -31    3.58    3.20
 -19   1  30   -2.19    2.54
 -19  -1  30    2.48    2.40
  19  -1 -30    1.91    3.19
  19   1 -30    3.84    3.71
 -19   1  29   44.32    5.82
  19  -1 -29   46.17    7.34
  19   1 -29   45.70    7.27
 -19   1  28   45.58    6.28
  19   1 -28   36.66    7.17
 -19   1  27   32.72    5.93
  19   1 -27   31.06    6.83
  19   1 -26  334.60   23.86
 -19   1  26  351.21   21.38
  19  -1 -25    8.93    6.43
  19   1 -25    5.54    5.24
 -19   1  25    0.72    3.83
  19   1 -24  334.79   23.67
  19  -1 -24  318.38   26.49
 -19   1  24  309.23   20.44
  19  -1 -23   35.40    9.77
  19   1 -23   23.17    6.99
  19   1 -22  103.16   12.28
  19  -1 -22   88.25   14.26
  19  -1 -21   49.11   11.11
  19   1 -21   66.51   10.44
  19   1 -20  135.45   14.26
  19  -1 -20  113.39   15.42
  19   1 -20  136.94   14.46
  19   1 -19  213.40   18.35
  19  -1 -19  232.04   21.76
  19   1 -19  224.47   19.06
  19   1 -18  263.11   20.73
  19  -1 -18  271.65   23.84
  19   1 -18  276.25   21.39
  19  -1 -17    9.16    5.64
  19  -1 -17    4.30    5.71
  19   1 -17    5.30    5.12
  19   1 -17    1.13    4.07
  19  -1 -16   68.60   10.66
  19   1 -16   81.95   10.76
  19  -1 -16   84.06   12.35
  19   1 -16   88.53   11.18
  19  -1 -15    9.30    5.73
  19   1 -15    7.43    4.12
  19  -1 -15    3.66    4.42
  19   1 -15   13.22    5.47
  19   1 -15    4.22    4.56
  19   1 -14  261.51   18.20
  19   1 -14  253.23   19.45
  19   1 -14  197.49   17.13
  19  -1 -14  196.03   17.97
  19   1 -14  233.74   18.38
  19  -1 -14  224.29   19.10
  19   1 -13  264.00   18.57
  19   1 -13  270.98   20.05
  19   1 -13  241.42   18.42
  19  -1 -13  192.58   17.58
  19   1 -13  247.91   18.67
  19  -1 -13  234.06   19.43
  19   1 -12  692.81   37.89
  19   1 -12  626.15   38.57
  19   1 -12  613.58   37.49
  19   1 -11   17.30    6.71
  19   1 -11   15.49    5.01
  19   1 -11   10.48    4.82
  19   1 -11   17.72    5.25
  19   1 -10  151.77   13.16
  19   1 -10  144.60   14.15
  19   1 -10  113.33   12.02
  19   1 -10  123.28   11.21
  19   1  -9    8.36    5.36
  19   1  -9   13.94    4.77
  19   1  -9   15.92    4.55
  19   1  -9   10.29    3.55
  19   1  -8  610.30   34.52
  19   1  -8  565.38   34.58
  19   1  -8  634.59   34.85
  19   1  -8  573.10   30.63
  19  -1  -7   42.67    8.42
  19   1  -7   53.23    7.62
  19   1  -7   29.57    7.19
  19   1  -7   49.16    7.39
  19   1  -7   42.55    6.67
  19  -1  -6 1304.05   65.64
  19   1  -6 1185.68   64.13
  19  -1  -6 1359.36   66.28
  19   1  -6 1238.20   64.11
  19  -1  -6 1426.21   65.09
  19   1  -6 1260.24   62.37
  19   1  -5   10.14    5.37
  19  -1  -5   16.64    6.16
  19   1  -5    8.33    4.65
  19  -1  -5    0.93    4.03
  19   1  -5    6.24    4.34
  19   1  -4  670.86   36.66
  19   1  -4  530.20   34.35
  19  -1  -4  610.23   36.26
  19   1  -4  598.11   34.89
  19  -1  -4  659.24   35.90
  19   1  -4  599.73   33.75
  19   1  -3   57.29    8.90
  19   1  -3   52.14    8.67
  19  -1  -3   38.17    8.00
  19   1  -3   51.67    8.06
  19  -1  -3   52.42    8.52
  19   1  -3   41.14    7.08
  19  -1  -3   48.74    6.86
  19   1  -2   63.13    9.53
  19   1  -2   56.06    9.02
  19   1  -2   64.73    9.20
  19  -1  -2   80.52   10.13
  19   1  -2   67.82    8.88
  19  -1  -2   65.21    8.20
  19  -1  -1   95.24   11.17
  19   1  -1   41.65    8.10
  19   1  -1   77.36   10.03
  19  -1  -1   61.44    9.54
  19   1  -1   63.18    8.99
  19  -1  -1   80.28    9.33
  19   1   0  802.53   43.18
  19  -1   0  765.43   43.07
  19   1   0  672.48   41.03
  19  -1   0  723.78   42.64
  19  -1   0  783.17   43.22
  19   1   0  815.70   42.41
  19  -1   0  784.39   41.52
  19   1   0  786.63   40.32
  19   1   1  437.66   28.07
  19  -1   1  439.97   28.73
  19  -1   1  430.74   28.30
  19  -1   1  428.19   28.43
  19   1   1  416.65   27.39
  19  -1   1  483.25   28.18
  19   1   2  198.81   16.61
  19  -1   2  206.04   17.29
  19  -1   2  160.56   15.61
  19   1   2  220.67   18.06
  19  -1   2  188.66   16.81
  19   1   2  190.13   16.18
  19  -1   2  180.06   15.89
  19   1   3   20.61    6.24
  19  -1   3   10.75    5.61
  19   1   3   21.67    4.44
  19  -1   3    8.94    4.92
  19   1   3    4.82    5.10
  19  -1   3   17.81    6.29
  19   1   3   10.93    5.28
  19  -1   3   11.90    5.10
  19   1   4   57.35    8.66
  19  -1   4   47.74    8.43
  19  -1   4   57.27    7.49
  19   1   4   42.91    8.73
  19  -1   4   55.11    9.30
  19   1   4   39.63    7.69
  19  -1   4   52.86    8.75
  19   1   5   44.14    7.76
  19  -1   5   34.17    7.39
  19  -1   5   29.82    5.19
  19   1   5   25.44    7.42
  19  -1   5   20.48    6.78
  19   1   5   38.84    7.50
  19  -1   5   21.70    6.24
  19   1   6  345.97   22.19
  19  -1   6  322.13   22.71
  19  -1   6  307.34   19.53
  19   1   6  315.61   23.08
  19   1   6  335.58   22.72
  19  -1   6  353.60   23.10
  19   1   7   91.73   10.51
  19  -1   7   90.88   11.21
  19   1   7   58.51   10.07
  19   1   7   85.05   10.71
  19  -1   7   94.57   11.08
  19   1   8  137.98   12.17
  19  -1   8  114.94   12.34
  19   1   8  138.87   12.76
  19  -1   8  155.40   13.39
  19   1   9    1.32    3.13
  19  -1   9    1.62    3.76
  19   1   9    0.81    3.68
  19  -1   9    0.81    4.08
  19   1  10  109.18    9.90
  19  -1  10  137.16   11.65
  19  -1  10  130.40   11.91
  19   1  10  118.72   11.28
  19  -1  10  134.71   11.65
  19   1  11    0.46    1.27
  19  -1  11   -1.28    3.21
  19  -1  11    3.63    3.43
  19   1  11   -2.09    3.23
  19  -1  11    2.06    3.87
  19   1  11   -1.28    3.27
  19  -1  12  271.89   17.13
  19  -1  12  273.19   18.06
  19   1  12  297.74   18.44
  19  -1  12  291.14   18.00
  19   1  12  287.03   17.61
  19  -1  13    3.93    2.76
  19  -1  13    0.57    3.08
  19  -1  13    1.09    2.92
  19   1  13    3.09    2.99
  19  -1  14  315.13   12.38
  19  -1  14  305.77   11.91
  19   1  14  294.29   11.32
  19  -1  15   21.55    3.73
  19  -1  15   27.76    3.90
  19   1  15   19.93    3.36
  19  -1  16    9.82    2.21
  19  -1  16    6.95    1.94
  19  -3 -30    0.89    2.47
  19   3 -30    0.47    2.58
  19  -3 -29   30.88    5.14
  19   3 -29   20.18    4.60
 -19   3  28    3.75    3.20
 -19  -3  28    5.02    3.15
  19  -3 -28    9.83    4.24
  19   3 -28    7.00    3.77
  19  -3 -27   67.56    9.01
  19   3 -27   64.39    8.68
 -19   3  27   75.87    8.07
 -19  -3  27   70.66    7.66
 -19   3  26    1.99    3.51
 -19  -3  26    8.74    3.72
  19  -3 -26    1.30    5.33
  19  -3 -26    7.07    4.75
  19   3 -26    4.38    4.64
  19  -3 -25    5.68    6.29
  19  -3 -25    8.43    4.53
  19   3 -25   10.35    4.98
 -19   3  25    4.96    3.69
 -19  -3  25    3.34    3.30
  19  -3 -24   95.97   11.12
  19   3 -24  106.82   11.60
  19  -3 -24   77.25   12.85
 -19   3  24   86.94    9.55
 -19  -3  24   74.32    8.83
  19  -3 -23   22.23    8.30
  19  -3 -23   19.66    5.76
  19   3 -23   27.56    7.02
 -19   3  23   19.97    5.32
 -19  -3  23   20.33    4.79
  19  -3 -22    9.81    8.05
  19  -3 -22    7.88    4.26
  19   3 -22    4.15    4.01
  19  -3 -21  161.55   14.65
  19   3 -21  181.43   15.52
  19  -3 -21  156.00   18.37
  19   3 -21  138.42   14.61
  19  -3 -21  138.12   14.33
  19  -3 -20   -2.26    5.11
  19  -3 -20    4.98    6.80
  19  -3 -20    4.86    4.50
  19   3 -20    5.19    5.40
  19   3 -20    3.39    4.50
  19  -3 -19  805.11   42.52
  19  -3 -19  779.33   42.96
  19   3 -19  763.06   43.25
  19  -3 -19  769.51   48.59
  19   3 -19  795.60   44.56
  19  -3 -19  799.70   45.09
  19  -3 -18  301.00   20.50
  19   3 -18  294.10   20.94
  19  -3 -18  253.44   19.97
  19   3 -18  316.49   21.79
  19  -3 -18  241.52   23.94
  19   3 -18  330.32   23.00
  19  -3 -18  282.41   22.29
  19  -3 -17  756.91   40.24
  19   3 -17  748.55   40.62
  19  -3 -17  659.84   39.73
  19   3 -17  736.28   40.96
  19  -3 -17  715.20   45.39
  19   3 -17  750.00   42.22
  19  -3 -17  764.16   43.11
  19  -3 -16   -1.19    5.01
  19  -3 -16    0.89    3.74
  19   3 -16    0.91    3.63
  19  -3 -16    2.92    5.82
  19  -3 -16    0.95    4.32
  19   3 -16    1.99    4.07
  19   3 -16    1.10    4.39
  19  -3 -15    9.42    6.02
  19  -3 -15    8.09    4.43
  19   3 -15    2.72    3.28
  19  -3 -15   10.95    6.48
  19  -3 -15    2.85    4.50
  19   3 -15    2.95    4.25
  19   3 -15    8.69    5.14
  19  -3 -14    3.50    5.16
  19  -3 -14    2.71    3.70
  19   3 -14   -0.91    3.63
  19  -3 -14   10.09    6.44
  19  -3 -14    3.80    3.99
  19   3 -14    1.95    4.10
  19   3 -14    1.06    3.97
  19  -3 -13  169.72   14.15
  19   3 -13  171.84   14.39
  19  -3 -13  154.96   13.97
  19   3 -13  145.81   13.85
  19  -3 -13  106.22   13.40
  19   3 -13  160.07   14.82
  19  -3 -13  142.68   14.83
  19  -3 -12   69.57   10.17
  19  -3 -12   83.42    9.78
  19   3 -12   73.06    9.57
  19  -3 -12   63.59    9.06
  19   3 -12   56.67    8.81
  19   3 -12   79.72   10.07
  19  -3 -11  517.02   31.40
  19   3 -11  549.34   32.09
  19   3 -11  452.93   30.94
  19  -3 -11  545.99   31.89
  19   3 -11  551.80   32.07
  19  -3 -11  521.00   33.20
  19  -3 -10    8.98    5.97
  19   3 -10   11.15    5.66
  19  -3 -10   19.46    5.56
  19   3 -10   17.96    5.28
  19   3 -10   15.02    5.62
  19  -3 -10   16.42    5.03
  19   3 -10   22.72    5.67
  19   3 -10   16.18    5.10
  19  -3  -9   31.32    7.25
  19   3  -9   26.48    6.85
  19  -3  -9   51.98    7.61
  19   3  -9   50.24    7.71
  19   3  -9   31.92    7.22
  19  -3  -9   39.67    6.81
  19   3  -9   32.86    6.84
  19   3  -9   39.31    6.70
  19  -3  -8  328.63   23.34
  19   3  -8  295.66   22.06
  19  -3  -8  314.67   21.71
  19   3  -8  369.26   23.30
  19   3  -8  371.90   24.29
  19   3  -8  312.34   20.83
  19   3  -8  366.89   23.15
  19  -3  -8  303.23   21.76
  19  -3  -8  314.94   23.36
  19  -3  -7  190.62   16.09
  19   3  -7  138.30   13.74
  19  -3  -7  189.72   15.06
  19   3  -7  168.01   14.84
  19   3  -7  179.40   15.78
  19   3  -7  177.31   13.55
  19  -3  -7  195.39   17.03
  19  -3  -6   46.49    8.30
  19   3  -6   57.29    7.94
  19   3  -6   60.65    8.63
  19  -3  -6   40.15    6.91
  19   3  -6   49.54    7.95
  19  -3  -5  277.68   20.18
  19   3  -5  225.70   17.65
  19  -3  -5  254.71   18.50
  19   3  -5  261.36   18.83
  19  -3  -4  358.66   24.19
  19  -3  -4  326.16   21.94
  19   3  -4  374.51   23.21
  19  -3  -4  360.51   24.37
  19  -3  -3    9.79    5.36
  19   3  -3   12.63    3.36
  19  -3  -3    4.63    5.00
  19   3  -3    1.29    4.97
  19  -3  -3    2.66    3.63
  19   3  -3    2.76    4.45
  19  -3  -3    5.59    5.18
  19  -3  -3    1.76    3.41
  19  -3  -2   14.37    6.18
  19   3  -2   26.45    4.83
  19  -3  -2   11.45    5.80
  19   3  -2   25.45    7.61
  19  -3  -2   18.34    6.40
  19  -3  -2   14.80    5.26
  19  -3  -1  616.63   34.75
  19  -3  -1  591.94   34.21
  19   3  -1  590.81   35.77
  19  -3  -1  650.69   35.84
  19   3  -1  571.00   30.97
  19  -3  -1  607.76   33.32
  19  -3   0   11.44    6.54
  19  -3   0    3.34    5.39
  19   3   0   -1.24    4.79
  19   3   0    4.84    3.91
  19  -3   0    1.02    4.53
  19  -3   1  585.43   36.16
  19   3   1  546.05   35.99
  19  -3   1  574.77   36.21
  19   3   1  526.15   36.61
  19   3   1  567.57   34.19
  19  -3   1  631.60   36.91
  19  -3   2   18.61    6.96
  19  -3   2   19.93    6.62
  19   3   2   32.98    7.88
  19  -3   2   13.38    6.32
  19   3   2   21.35    7.09
  19   3   2   19.20    5.49
  19  -3   2   29.60    7.52
  19  -3   3  192.15   16.98
  19  -3   3  157.89   14.72
  19   3   3  117.25   14.01
  19  -3   3  191.87   16.31
  19   3   3  160.14   15.69
  19  -3   3  167.82   16.62
  19   3   3  170.62   14.44
  19  -3   3  186.88   16.54
  19  -3   4    9.05    4.63
  19   3   4   11.94    5.74
  19  -3   4    9.60    5.64
  19   3   4   -2.17    4.81
  19  -3   4    3.66    5.28
  19   3   4    7.17    4.58
  19  -3   4    8.86    6.41
  19  -3   5  295.07   19.98
  19   3   5  327.74   22.69
  19  -3   5  297.91   21.89
  19  -3   5  351.13   24.58
  19   3   5  318.85   21.69
  19  -3   5  351.05   23.88
  19   3   6  256.90   18.53
  19  -3   6  235.25   17.95
  19  -3   6  272.95   20.30
  19   3   6  280.61   18.63
  19  -3   6  275.25   19.78
  19  -3   7  514.75   25.99
  19   3   7  457.22   28.82
  19  -3   7  531.79   29.83
  19  -3   7  513.69   31.45
  19   3   7  469.35   28.96
  19  -3   7  539.16   31.28
  19  -3   8   28.73    7.22
  19  -3   8   38.32    7.67
  19   3   8   29.17    6.41
  19  -3   8   38.03    7.45
  19  -3   9  224.94   17.36
  19  -3   9  230.40   17.48
  19   3   9  240.77   16.77
  19  -3   9  259.67   17.94
  19  -3  10   28.28    6.05
  19  -3  10   42.17    6.74
  19   3  10   42.77    6.47
  19  -3  10   32.24    6.32
  19  -3  11   17.53    4.71
  19  -3  11   19.32    5.09
  19   3  11   20.27    4.58
  19  -3  11   16.02    4.48
  19  -3  12   75.26    7.73
  19  -3  12   75.18    7.91
  19   3  12   82.41    7.86
  19  -3  13   77.88    7.06
  19  -3  13   64.47    6.66
  19   3  13   69.84    6.67
  19  -3  14    0.37    2.16
  19  -3  14    0.79    2.26
  19   3  14    0.38    2.05
  19   3  14    1.61    1.79
  19   3  15   23.83    3.19
  19   5 -29   -0.68    3.27
  19   5 -28   37.21    6.91
  19   5 -27   37.32    7.72
  19  -5 -27   23.27    6.34
  19  -5 -26   35.51    7.35
  19   5 -26   26.28    4.68
  19   5 -25  244.81   13.22
  19  -5 -25  271.18   18.62
 -19  -5  25  264.16   11.58
  19  -5 -24  154.48   13.18
  19   5 -24  154.06   13.05
  19  -5 -24  159.79   16.81
 -19  -5  24  175.55   12.06
  19  -5 -24  142.51   13.03
  19  -5 -23  156.54   13.23
  19   5 -23  132.44   12.82
  19  -5 -23  153.97   17.14
 -19   5  23  140.74   11.49
 -19  -5  23  147.80   11.40
  19  -5 -23  167.36   14.50
  19  -5 -22    1.03    4.67
  19  -5 -22    7.63    6.91
  19  -5 -22    1.71    3.68
  19   5 -22   -0.85    3.67
 -19   5  22    2.52    3.21
 -19  -5  22    3.61    3.24
  19  -5 -21    6.75    5.75
  19  -5 -21   11.18    7.56
  19  -5 -21    3.48    3.86
  19   5 -21    4.40    4.34
 -19   5  21    7.84    3.79
 -19  -5  21    9.99    3.92
  19  -5 -20   11.92    5.89
  19  -5 -20    6.59    6.77
  19  -5 -20    6.13    4.42
  19   5 -20   13.43    4.91
 -19   5  20   15.45    4.48
 -19  -5  20   17.31    4.62
  19  -5 -19  308.53   23.45
  19  -5 -19  273.09   19.88
  19   5 -19  287.42   20.34
  19  -5 -19  292.01   25.89
  19  -5 -18   94.47   12.41
  19  -5 -18   86.04   13.63
  19  -5 -18   80.49    9.88
  19   5 -18   68.68    9.44
  19   5 -18   68.75    9.97
  19  -5 -17   77.34   11.50
  19  -5 -17   74.00    9.44
  19   5 -17   87.26   10.00
  19  -5 -17   73.15    9.11
  19  -5 -17   75.28   13.24
  19   5 -17   83.14   10.91
  19  -5 -16   13.91    6.22
  19  -5 -16    2.65    3.91
  19  -5 -16    0.87    4.02
  19   5 -16    4.47    4.14
  19  -5 -16   13.11    8.07
  19   5 -16   12.28    5.70
  19  -5 -15  141.61   15.90
  19  -5 -15  163.83   14.25
  19  -5 -15  158.86   13.89
  19   5 -15  162.05   14.09
  19   5 -15  161.60   17.34
  19  -5 -15  133.95   17.06
  19   5 -15  161.92   15.36
  19  -5 -14    2.49    5.24
  19  -5 -14   10.65    4.85
  19   5 -14    1.47    5.48
  19  -5 -14    6.88    3.99
  19   5 -14   11.40    4.79
  19  -5 -14    2.99    6.92
  19   5 -14    3.25    4.80
  19  -5 -13 1164.54   61.56
  19  -5 -13 1093.09   57.89
  19  -5 -13 1110.72   57.53
  19   5 -13 1197.26   58.23
  19   5 -13 1302.29   64.95
  19  -5 -13 1077.00   62.03
  19   5 -13 1201.95   60.26
  19  -5 -12   83.08   11.70
  19  -5 -12   80.29    9.77
  19   5 -12   93.08   10.30
  19   5 -12   75.39   12.16
  19  -5 -12   75.58   11.46
  19   5 -12   64.26    9.83
  19  -5 -12   92.74   10.64
  19  -5 -11 1579.60   78.26
  19   5 -11 1592.51   78.34
  19   5 -11 1812.30   85.17
  19   5 -11 1724.33   80.77
  19  -5 -11 1591.47   82.08
  19  -5 -10   86.81    9.80
  19   5 -10   80.09    9.65
  19   5 -10   80.76   12.17
  19   5 -10   62.16    9.23
  19  -5 -10   98.69   12.59
  19  -5  -9   92.60   11.98
  19  -5  -9   93.34   10.39
  19   5  -9   86.20   10.06
  19   5  -9  105.80   13.47
  19   5  -9  113.39   11.52
  19  -5  -8  142.37   13.13
  19   5  -8  142.87   12.93
  19   5  -8  163.18   13.96
  19  -5  -7  124.62   13.38
  19  -5  -7  127.39   12.37
  19   5  -7  132.19   12.31
  19   5  -7  146.35   15.43
  19   5  -7  150.19   12.88
  19  -5  -6   72.22   10.67
  19  -5  -6   78.76   10.52
  19  -5  -6   86.94    9.84
  19   5  -6   96.15   12.18
  19   5  -6   48.41    7.86
  19   5  -6   68.86    8.26
  19  -5  -5  163.74   15.23
  19   5  -5  171.94   16.63
  19  -5  -5  156.79   15.56
  19  -5  -4  211.15   17.80
  19   5  -4  239.77   22.05
  19   5  -4  195.71   18.27
  19  -5  -3  179.97   16.12
  19   5  -3  191.90   19.68
  19   5  -3  174.94   16.62
  19  -5  -2  129.82   13.58
  19   5  -2  102.35   11.87
  19  -5  -2  133.28   13.31
  19   5  -2  157.77   17.32
  19   5  -2  103.57   12.74
  19  -5  -1 1857.54   90.86
  19  -5  -1 1835.63   89.90
  19   5  -1 1836.87   88.80
  19  -5  -1 1883.69   89.42
  19   5  -1 1933.48   95.32
  19  -5   0   37.76    8.23
  19  -5   0   32.06    7.35
  19   5   0   22.21    6.34
  19  -5   0   20.59    6.44
  19   5   0   18.06    7.76
  19  -5   1 1383.53   69.06
  19   5   1 1295.24   66.12
  19  -5   1 1305.96   66.55
  19  -5   1 1310.69   66.82
  19   5   1 1418.90   72.75
  19  -5   1 1435.29   71.00
  19  -5   2  116.37   12.83
  19  -5   2   99.22   11.09
  19  -5   2  107.14   11.28
  19   5   2   69.64    9.59
  19   5   2   93.31   13.51
  19  -5   2  129.68   14.25
  19  -5   2  109.62   12.78
  19  -5   3  111.37   12.29
  19   5   3   97.29   10.64
  19  -5   3   98.93   10.88
  19  -5   3  128.33   11.88
  19   5   3  109.27   14.33
  19  -5   3  131.19   14.24
  19  -5   3  111.41   12.88
  19  -5   4    3.09    4.77
  19  -5   4    5.08    3.78
  19   5   4    9.51    4.94
  19   5   4   -1.31    5.23
  19  -5   4   -1.14    5.18
  19   5   4    1.29    3.11
  19  -5   4   -1.09    4.71
  19  -5   5   68.31    9.71
  19   5   5   65.32    8.59
  19  -5   5   64.61    6.78
  19   5   5   49.01    9.81
  19  -5   5   86.63   11.27
  19   5   5   74.70    8.08
  19  -5   5   75.60   10.39
  19  -5   6   42.88    7.52
  19   5   6   18.86    6.66
  19  -5   6   43.30    8.09
  19   5   6   24.19    5.14
  19  -5   6   29.99    7.15
  19  -5   7  160.88   13.59
  19   5   7  139.47   13.64
  19  -5   7  158.75   13.77
  19   5   7  126.00   10.95
  19  -5   7  168.01   14.13
  19  -5   8    6.92    4.41
  19   5   8    9.68    4.63
  19  -5   8    9.55    4.57
  19   5   8   15.28    3.97
  19  -5   9    0.69    3.28
  19   5   9    0.62    1.47
  19  -5   9    2.10    3.76
  19   5   9    1.48    2.61
  19  -5  10    0.62    3.03
  19   5  10    3.47    2.48
  19  -5  11   75.04    7.24
  19   5  11   48.30    5.06
  19   5  12   -0.29    1.04
  19   7 -27    1.11    2.80
  19  -7 -27    1.06    2.56
  19   7 -26   27.14    5.60
  19  -7 -26   27.50    5.51
  19   7 -25    3.56    4.13
  19  -7 -25    8.32    4.33
  19  -7 -24   21.90    4.72
  19   7 -24   18.76    6.34
  19  -7 -24   17.40    6.03
  19  -7 -23    0.77    3.88
  19   7 -23   10.68    6.38
  19  -7 -23   -1.09    5.06
  19  -7 -22    4.49    5.06
  19   7 -22    2.62    5.65
  19  -7 -22    4.85    5.24
  19  -7 -21   38.83    7.77
  19   7 -21   46.48    9.97
  19  -7 -21   43.55    9.36
  19  -7 -20  596.18   34.87
  19   7 -20  563.58   37.78
  19  -7 -20  558.53   37.35
  19  -7 -19  207.14   18.36
  19   7 -19  241.56   21.53
  19  -7 -19  213.16   20.93
  19  -7 -18  317.36   23.27
  19  -7 -18  282.78   25.31
  19  -7 -17   90.34   11.84
  19  -7 -17   73.77   13.05
  19  -7 -16  323.80   23.57
  19  -7 -16  299.78   26.45
  19  -7 -15   23.95    7.48
  19   7 -15   42.59    9.58
  19  -7 -15   20.80    7.96
  19  -7 -14   50.02    9.13
  19   7 -14   60.70   11.04
  19  -7 -14   52.52   10.79
  19  -7 -13  104.80   12.77
  19   7 -13  127.44   14.90
  19  -7 -13  100.71   14.08
  19  -7 -12   36.61    8.36
  19   7 -12   38.62    9.21
  19  -7 -12   45.65    9.32
  19   7 -11   15.69    6.78
  19   7 -10  143.90   16.31
  19  -7  -9   -1.15    5.09
  19   7  -9    5.72    5.85
  19   7  -8  568.69   38.07
  19  -7  -8  635.25   36.97
  19   7  -7  386.86   28.04
  19  -7  -7  336.17   24.80
  19   7  -6 1678.02   85.87
  19  -7  -6 1562.86   82.27
  19   7  -5  338.31   27.02
  19   7  -5  292.93   23.51
  19  -7  -4  497.10   30.16
  19   7  -4  551.02   37.23
  19   7  -4  483.24   33.21
  19  -7  -3   74.42   10.09
  19   7  -3   93.85   14.17
  19   7  -3  108.83   13.49
  19  -7  -2  190.09   15.91
  19  -7  -2  195.48   16.18
  19   7  -2  221.60   21.41
  19   7  -2  171.66   17.32
  19  -7  -1   21.81    5.90
  19  -7  -1   13.32    5.19
  19   7  -1   14.24    7.20
  19   7  -1   16.64    6.22
  19  -7   0   77.19    9.47
  19   7   0   95.52   13.88
  19   7   0   71.25   10.62
  19  -7   1  108.35   11.34
  19  -7   1   78.46    9.02
  19   7   1   95.18   13.30
  19   7   1   81.83   10.74
  19  -7   2   14.55    5.36
  19  -7   2   13.04    4.00
  19   7   2    7.11    6.60
  19   7   2    7.29    3.76
  19  -7   3   49.51    7.83
  19   7   3   40.37    9.11
  19  -7   4  198.92   15.34
  19   7   4  172.77   17.14
  19  -7   5  117.19   10.90
  19   7   5   99.04   12.76
  19  -7   6  454.38   25.64
  19   7   6  427.21   27.98
  19  -7   7  389.57   23.26
  19   7   7  445.99   26.17
  19  -7   8  576.25   29.63
  19   7   8  554.38   30.90
  19  -7   9   47.40    5.16
  19   7   9    2.01    2.03
  19  -7  10    6.83    2.45
  19  -7  11    0.60    1.55
  19   9 -23   10.13    3.48
  19   9 -22  300.96   19.93
  19  -9 -22  275.53   18.47
  19  -9 -22  335.02   18.70
  19  -9 -21   16.66    4.75
  19  -9 -21   15.66    4.83
  19  -9 -20   30.90    6.14
  19   9 -20   22.39    6.30
  19  -9 -20   22.57    5.82
  19  -9 -19    8.12    4.78
  19   9 -19    8.94    5.29
  19  -9 -19    8.87    4.93
  19  -9 -18    0.85    4.42
  19   9 -18    5.94    5.85
  19  -9 -18    5.69    4.85
  19  -9 -17    1.73    4.26
  19   9 -17   -2.46    5.31
  19  -9 -17   -1.98    4.68
  19  -9 -16   38.35    7.15
  19  -9 -16   24.13    6.54
  19  -9 -15    7.01    4.94
  19  -9 -15    9.94    5.77
  19  -9 -14  309.91   21.95
  19  -9 -13   -0.88    2.55
  19   9 -12 1092.29   58.13
  19  -9 -12  989.88   52.37
  19  -9 -11   10.57    4.91
  19   9 -11   12.39    6.25
  19   9 -11   13.85    6.56
  19   9 -10  376.49   27.78
  19   9 -10  381.24   27.19
  19  -9 -10  368.21   24.02
  19   9  -9  141.04   16.01
  19   9  -9  133.21   14.70
  19  -9  -9  137.52   12.94
  19  -9  -8   12.94    4.98
  19   9  -8   23.56    8.39
  19   9  -8   22.64    6.80
  19  -9  -7    7.55    4.51
  19   9  -7    1.39    5.53
  19   9  -7    6.24    5.66
  19   9  -6  224.19   20.22
  19   9  -6  206.45   18.67
  19   9  -5    4.13    5.64
  19   9  -5    2.43    4.83
  19   9  -4   62.62   10.16
  19  -9  -3   72.54    8.14
  19   9  -3   67.00   10.19
  19  -9  -2  166.49   12.71
  19   9  -2  261.81   18.94
  19   9  -1   45.20    8.33
  19   9   0  702.67   39.84
  19   9   0  597.55   35.76
  19   9   1  287.77   21.69
  19   9   1  259.18   18.73
  19   9   2  432.18   21.44
  19   9   2    1.34    2.26
  19   9   3    7.82    5.00
  19   9   4   -1.73    3.92
  19   9   5    5.92    4.35
  19   9   6   56.29    6.91
  19  11 -16  109.25    9.98
  19 -11 -16  107.99    8.75
  19 -11 -15    0.50    2.48
  19  11 -15   -0.73    3.29
  19 -11 -14    0.51    2.40
  19  11 -14   -0.70    3.00
  19  11 -14   -1.55    3.42
  19  11 -13   33.55    6.30
  19  11 -13   39.27    6.83
  19  11 -12   50.61    7.62
  19  11 -11  151.27   13.34
  19  11 -10   -0.83    4.03
  19  11  -9   48.38    7.59
  19  11  -9   43.75    7.09
  19  11  -8  201.81   13.17
  19  11  -8  175.35   12.11
  19  11  -7  232.08   17.05
  19  11  -7  220.18   16.27
  19  11  -6  322.06   21.28
  19  11  -6  324.98   20.73
  19  11  -5  349.75   22.64
  19  11  -5  367.27   22.17
  19  11  -4  223.05   16.14
  19  11  -4  221.41   15.51
  19  11  -3   20.59    4.98
  19  11  -3   22.98    4.61
  19  11  -2    2.66    3.28
  19  11  -2    4.24    2.76
  19  11  -1  154.68   11.95
  19  11   0   47.94    5.99
  19  11   1   66.83    6.58
  20   0 -31   -0.96    2.89
  20   0 -30    9.16    3.70
 -20   0  29    1.42    2.55
  20   0 -29    1.46    3.67
 -20   0  28   23.21    4.55
  20   0 -28   20.17    5.70
 -20   0  27    3.58    2.94
  20   0 -27    5.61    4.04
  20   0 -26 1019.14   51.62
 -20   0  26  928.51   47.25
  20   0 -25    1.06    4.70
 -20   0  25   -0.68    3.47
  20   0 -24 1300.84   64.47
 -20   0  24 1201.29   59.87
  20   0 -23    1.11    4.56
  20   0 -22   48.12    8.54
  20   0 -21    6.69    5.60
  20   0 -20   -1.11    5.46
  20   0 -19   -1.40    5.74
  20   0 -19   -2.20    5.61
  20   0 -18  136.41   13.61
  20   0 -18  133.73   14.06
  20   0 -18  141.10   15.65
  20   0 -17   -0.99    3.18
  20   0 -17    2.48    4.94
  20   0 -17   -1.08    4.64
  20   0 -16 1054.90   52.72
  20   0 -16  996.29   53.51
  20   0 -16  924.23   52.30
  20   0 -15    5.87    4.63
  20   0 -15    1.18    5.37
  20   0 -15   13.72    5.36
  20   0 -15   12.64    6.02
  20   0 -14 1689.83   80.62
  20   0 -14 1683.35   82.65
  20   0 -14 1486.66   80.12
  20   0 -14 1767.05   80.25
  20   0 -13   16.66    6.62
  20   0 -13   10.78    5.46
  20   0 -13   12.34    5.46
  20   0 -13   11.49    4.98
  20   0 -12 3084.77  137.22
  20   0 -12 3186.52  139.57
  20   0 -12 2943.29  137.24
  20   0 -12 2819.64  133.89
  20   0 -11    5.79    6.26
  20   0 -11   20.04    6.23
  20   0 -11   11.10    3.88
  20   0 -10  638.56   37.26
  20   0 -10  737.11   39.67
  20   0 -10  609.86   36.87
  20   0  -9    6.97    3.97
  20   0  -9    4.51    5.33
  20   0  -9    5.89    4.65
  20   0  -8   24.04    5.86
  20   0  -8   21.24    6.62
  20   0  -8   16.53    5.38
  20   0  -7    1.11    4.81
  20   0  -7    3.86    3.73
  20   0  -6  140.38   14.30
  20   0  -6  144.16   13.59
  20   0  -6  144.80   13.08
  20   0  -5    1.09    4.45
  20   0  -5    1.12    5.06
  20   0  -5    6.73    4.15
  20   0  -5    1.78    3.74
  20   0  -4   19.39    6.11
  20   0  -4   16.86    6.46
  20   0  -4   18.37    5.57
  20   0  -4   16.45    5.35
  20   0  -3    3.21    4.96
  20   0  -3    2.25    4.60
  20   0  -3    0.98    3.88
  20   0  -3   -0.94    3.85
  20   0  -2 1237.06   62.14
  20   0  -2 1193.06   61.97
  20   0  -2 1172.21   60.62
  20   0  -1   14.89    5.99
  20   0  -1    9.90    5.33
  20   0  -1    4.53    3.87
  20   0   0  811.04   46.25
  20   0   0  904.89   46.78
  20   0   0  841.83   44.21
  20   0   1   16.74    5.91
  20   0   1    8.47    6.73
  20   0   1   17.50    6.23
  20   0   1    7.54    4.74
  20   0   2  850.90   46.58
  20   0   2  735.93   44.37
  20   0   2  901.60   48.40
  20   0   2  878.85   46.91
  20   0   2  926.04   45.67
  20   0   3   -2.01    4.76
  20   0   3    2.40    5.56
  20   0   3    3.08    4.76
  20   0   3    1.74    3.67
  20   0   4    6.79    4.53
  20   0   4    8.15    6.07
  20   0   4   17.05    5.50
  20   0   4    5.18    3.95
  20   0   5   -5.55    4.47
  20   0   5   -4.45    5.89
  20   0   5    0.97    4.38
  20   0   5    0.84    3.73
  20   0   6  138.12   14.31
  20   0   6  149.79   15.22
  20   0   6  172.36   15.50
  20   0   6  129.69   13.75
  20   0   7    0.80    3.47
  20   0   7    0.87    4.35
  20   0   7   -1.54    3.86
  20   0   8   -0.73    3.58
  20   0   8   -4.06    3.92
  20   0   8    2.17    3.42
  20   0   9    1.29    2.92
  20   0   9   -1.50    3.54
  20   0   9    0.67    3.31
  20   0  10   11.58    3.52
  20   0  10   10.46    3.69
  20   0  11    2.25    2.57
  20   0  11    2.77    3.08
  20   0  12    0.33    0.64
  20   0  12  308.94   12.23
  20   0  13    0.83    2.33
  20   0  14    5.92    2.26
  20   0  15    0.83    1.44
  20  -2 -31  147.08    9.73
  20   2 -31  139.95    9.75
  20  -2 -30  427.51   23.50
  20   2 -30  438.45   23.74
  20  -2 -29   52.66    6.91
  20   2 -29   44.26    6.46
 -20   2  29   56.23    6.07
 -20  -2  29   56.11    5.84
  20  -2 -28   86.11    9.25
  20   2 -28   80.12    9.21
 -20   2  28   77.29    7.91
 -20  -2  28   74.80    7.38
 -20   2  27   11.63    4.17
 -20  -2  27   14.71    4.23
  20  -2 -27    9.99    4.92
  20   2 -27   17.71    5.55
  20  -2 -26   12.21    6.13
  20  -2 -26   10.82    4.78
  20   2 -26    8.32    5.14
 -20   2  26    7.98    4.17
 -20  -2  26    6.17    3.92
  20  -2 -25   73.94   11.33
  20  -2 -25   68.31    9.33
  20   2 -25   65.25    9.55
 -20  -2  25   67.06    7.81
 -20   2  25   67.91    8.30
  20  -2 -24    4.20    6.48
  20  -2 -24    4.89    4.23
  20   2 -24   14.50    5.57
 -20   2  24    2.97    3.66
 -20  -2  24    6.22    3.72
  20  -2 -23   20.38    7.53
  20  -2 -23   27.78    6.95
  20   2 -23   38.39    7.45
  20  -2 -22   17.87    7.25
  20  -2 -22   21.96    6.53
  20   2 -22   24.87    7.29
  20  -2 -21  240.73   19.02
  20   2 -21  274.89   20.74
  20  -2 -21  273.05   23.38
  20  -2 -20  658.80   38.48
  20   2 -20  752.06   40.02
  20  -2 -20  629.34   38.43
  20   2 -20  701.26   40.16
  20  -2 -20  714.27   43.82
  20   2 -20  745.88   40.97
  20  -2 -20  683.70   39.64
  20  -2 -19 1197.34   63.31
  20   2 -19 1297.32   64.45
  20  -2 -19 1222.85   64.10
  20   2 -19 1216.24   64.80
  20  -2 -19 1336.45   69.27
  20   2 -19 1354.34   66.03
  20  -2 -19 1351.04   66.10
  20  -2 -18  393.28   26.40
  20   2 -18  473.38   28.09
  20  -2 -18  411.94   27.13
  20   2 -18  429.74   27.91
  20  -2 -18  417.41   30.34
  20   2 -18  455.46   28.93
  20  -2 -18  408.94   28.37
  20  -2 -17 1018.00   52.57
  20   2 -17 1046.54   53.00
  20  -2 -17  990.24   52.83
  20   2 -17  986.41   53.41
  20  -2 -17  956.99   55.44
  20   2 -17 1018.58   54.03
  20  -2 -17 1046.40   55.19
  20  -2 -16  358.16   23.48
  20   2 -16  380.54   23.95
  20  -2 -16  308.41   22.86
  20   2 -16  329.52   23.45
  20  -2 -16  306.76   24.64
  20   2 -16  395.76   25.33
  20  -2 -16  323.51   24.57
  20  -2 -15   90.48   12.19
  20  -2 -15  104.24   11.11
  20   2 -15   99.82   11.08
  20  -2 -15   86.30   10.81
  20  -2 -15   90.68   11.87
  20   2 -15   81.29   10.77
  20   2 -15  125.61   12.76
  20  -2 -14  252.02   18.09
  20   2 -14  217.29   17.39
  20  -2 -14  238.13   18.05
  20   2 -14  179.46   16.56
  20  -2 -14  185.06   17.00
  20   2 -14  247.81   18.84
  20  -2 -14  201.05   18.35
  20  -2 -13   46.72    8.99
  20   2 -13   36.90    8.15
  20  -2 -13   47.44    7.81
  20   2 -13   34.82    7.04
  20  -2 -13   63.85    9.31
  20   2 -13   36.28    7.50
  20   2 -13   43.92    7.58
  20  -2 -12  453.30   27.82
  20   2 -12  423.23   27.38
  20   2 -12  451.01   28.70
  20  -2 -12  394.55   26.97
  20   2 -12  450.34   28.06
  20   2 -12  477.56   27.77
  20  -2 -12  391.51   28.39
  20  -2 -11  126.44   12.30
  20   2 -11  105.97   11.67
  20   2 -11   88.92   11.77
  20  -2 -11  110.86   11.75
  20   2 -11  100.19   11.35
  20   2 -11  100.50   10.69
  20  -2 -11  103.84   12.85
  20   2 -10    3.28    4.84
  20  -2 -10    3.94    3.17
  20   2 -10    6.94    3.72
  20   2 -10   12.10    4.78
  20  -2 -10   13.57    4.50
  20   2 -10    8.87    4.15
  20   2 -10    3.87    3.51
  20   2  -9  449.27   30.49
  20  -2  -9  507.50   30.40
  20   2  -9  480.76   30.25
  20   2  -9  496.50   30.34
  20   2  -9  516.31   28.27
  20  -2  -9  524.11   30.96
  20   2  -9  526.75   31.13
  20   2  -8  565.15   35.04
  20  -2  -8  579.57   34.44
  20   2  -8  663.15   35.77
  20  -2  -7  835.37   45.66
  20   2  -7  754.49   43.72
  20  -2  -7  878.58   44.27
  20   2  -7  774.90   43.78
  20  -2  -6 1162.44   57.57
  20   2  -6 1009.97   55.06
  20  -2  -6 1038.01   54.92
  20   2  -6 1105.60   55.83
  20  -2  -5  930.71   47.27
  20  -2  -5  888.96   47.22
  20  -2  -5  833.50   44.60
  20   2  -5  833.31   45.10
  20  -2  -5  872.89   46.06
  20  -2  -4  192.26   17.06
  20   2  -4  197.80   16.29
  20  -2  -4  185.12   15.89
  20   2  -4  206.92   16.76
  20   2  -4  202.19   17.82
  20  -2  -4  224.13   17.75
  20   2  -4  202.73   15.25
  20  -2  -4  196.87   15.19
  20  -2  -3   21.03    6.85
  20   2  -3   33.14    5.67
  20   2  -3   28.48    6.94
  20  -2  -3   23.44    6.43
  20   2  -3   17.52    5.97
  20  -2  -3   40.64    8.14
  20   2  -3   26.03    5.75
  20  -2  -3   24.83    5.68
  20  -2  -2    6.69    5.60
  20   2  -2   13.84    3.68
  20  -2  -2   -1.17    5.31
  20  -2  -2    1.09    4.61
  20   2  -2    5.77    4.07
  20  -2  -2    3.38    3.92
  20   2  -1  134.04   12.42
  20  -2  -1  151.72   15.04
  20  -2  -1  180.62   16.10
  20   2  -1  153.71   13.67
  20  -2  -1  152.91   13.86
  20   2   0  157.90   13.77
  20  -2   0  212.26   17.57
  20  -2   0  214.24   18.21
  20   2   0  191.38   15.62
  20  -2   0  216.24   16.56
  20   2   1   68.55    9.47
  20   2   1   96.78    9.10
  20  -2   1   44.90    8.94
  20   2   1   56.84    9.67
  20  -2   1   68.07   10.26
  20  -2   1   77.77   11.08
  20   2   1   56.68    8.53
  20  -2   1   50.34    8.37
  20   2   2  188.58   15.77
  20  -2   2  177.14   15.78
  20   2   2  182.70   16.93
  20  -2   2  194.26   17.11
  20  -2   2  194.68   17.52
  20   2   2  190.16   15.85
  20  -2   2  211.93   16.97
  20   2   3   10.69    4.96
  20  -2   3   12.14    6.31
  20  -2   3   17.05    5.35
  20   2   3   12.64    6.29
  20  -2   3    7.85    6.14
  20  -2   3    5.75    5.68
  20   2   3   11.16    5.33
  20  -2   3    5.98    4.83
  20   2   4  363.06   22.41
  20  -2   4  351.51   24.05
  20   2   4  373.45   24.52
  20  -2   4  340.17   23.72
  20   2   4  342.39   22.61
  20  -2   4  363.19   23.56
  20   2   5  179.36   14.64
  20  -2   5  246.47   18.50
  20  -2   5  156.32   13.09
  20   2   5  200.53   16.72
  20  -2   5  207.57   16.84
  20   2   5  184.24   15.46
  20  -2   5  245.69   17.49
  20   2   6  444.54   26.51
  20  -2   6  514.93   30.07
  20  -2   6  480.06   25.23
  20   2   6  472.68   29.01
  20  -2   6  422.61   27.99
  20   2   6  478.67   28.45
  20  -2   6  514.32   29.25
  20  -2   7   75.73   10.83
  20   2   7  134.54   12.43
  20  -2   7  145.56   12.75
  20   2   7   60.55    9.58
  20  -2   7   85.91   10.66
  20  -2   8  286.18   21.44
  20   2   8  542.64   25.14
  20  -2   8  585.20   25.51
  20  -2   8  287.82   21.71
  20   2   8  286.72   21.00
  20  -2   8  312.38   21.59
  20  -2   9   59.20    7.84
  20  -2   9   57.77    8.00
  20   2   9   45.36    6.80
  20   2   9   56.54    6.83
  20  -2   9   57.97    7.46
  20  -2  10   58.48    7.24
  20  -2  10   53.81    7.28
  20   2  10   51.36    6.81
  20  -2  10   59.73    7.30
  20   2  10   55.61    6.59
  20  -2  11    4.99    2.93
  20  -2  11    2.43    2.94
  20   2  11    2.27    3.05
  20  -2  11    5.61    3.30
  20   2  11    1.46    2.71
  20  -2  12   66.54    6.69
  20  -2  12   75.94    7.58
  20   2  12   79.06    7.29
  20  -2  12   87.25    7.57
  20   2  12   67.59    6.63
  20  -2  13    0.68    1.94
  20  -2  13   -0.43    2.37
  20   2  13   -0.41    2.25
  20  -2  13    0.40    2.06
  20   2  13    0.34    1.94
  20  -2  14    3.67    2.01
  20   2  14    1.27    1.74
  20  -2  14    2.83    1.80
  20   4 -30   15.26    3.94
  20   4 -29    6.30    4.37
  20   4 -29    5.53    2.40
  20  -4 -28   -3.37    3.54
  20   4 -28   -1.50    3.28
  20  -4 -27  857.09   41.61
  20   4 -27  803.57   41.22
  20  -4 -27  808.45   44.37
 -20   4  26   17.39    4.40
 -20  -4  26   11.64    3.94
  20  -4 -26    4.26    4.94
  20  -4 -26    0.72    4.01
  20   4 -26    6.29    4.06
  20  -4 -25  935.03   49.09
  20   4 -25  929.47   48.78
  20  -4 -25  882.84   51.95
 -20   4  25 1027.60   47.73
 -20  -4  25 1008.06   47.42
  20  -4 -24   16.68    6.71
  20  -4 -24    9.42    4.67
  20   4 -24   22.62    5.77
 -20   4  24   27.28    5.49
 -20  -4  24   18.89    4.73
  20  -4 -23  738.68   39.77
  20   4 -23  689.95   39.19
  20  -4 -23  701.27   43.31
 -20   4  23  736.97   37.96
 -20  -4  23  739.60   37.68
  20  -4 -22    7.76    4.87
  20  -4 -22   -2.86    6.33
  20  -4 -22   -0.91    3.73
  20   4 -22    5.51    4.52
 -20   4  22    6.46    4.10
 -20  -4  22    3.46    3.78
  20  -4 -21   76.27   10.41
  20  -4 -21   66.27   11.95
  20  -4 -21   69.01    9.36
  20   4 -21   78.16    9.89
  20  -4 -20    8.06    5.99
  20  -4 -20    8.96    7.21
  20  -4 -20   -0.93    4.47
  20   4 -20    2.86    4.42
  20  -4 -19  362.24   24.33
  20   4 -19  366.94   24.67
  20  -4 -19  347.33   28.10
  20  -4 -18   76.73   11.49
  20  -4 -18   62.68    8.86
  20   4 -18   72.45    9.32
  20  -4 -18   83.52   12.70
  20  -4 -18   67.67    9.07
  20   4 -18   70.50    9.72
  20   4 -18   84.48   10.79
  20  -4 -17   90.27   12.25
  20  -4 -17   87.99   10.28
  20   4 -17   76.67    9.84
  20  -4 -17   84.46   10.32
  20   4 -17   90.76   10.68
  20  -4 -17   86.62   12.98
  20   4 -17   73.65   10.43
  20  -4 -16    6.28    5.15
  20  -4 -16    5.56    4.30
  20   4 -16    3.72    4.50
  20  -4 -16   10.81    6.39
  20  -4 -16    9.29    4.76
  20   4 -16   12.54    5.11
  20   4 -16    4.30    4.16
  20  -4 -15  143.14   13.39
  20   4 -15  143.32   13.78
  20  -4 -15  153.61   13.72
  20   4 -15  156.92   14.10
  20  -4 -15  113.86   14.31
  20   4 -15  131.77   13.77
  20  -4 -15  131.16   15.06
  20  -4 -14    6.18    6.55
  20  -4 -14   12.27    5.00
  20   4 -14    8.54    4.59
  20  -4 -14    6.52    4.68
  20   4 -14    2.88    4.36
  20  -4 -14    9.30    6.05
  20   4 -14    4.17    4.62
  20  -4 -13 2068.40   96.64
  20   4 -13 2029.19   96.38
  20  -4 -13 2009.30   96.17
  20   4 -13 1951.45   96.19
  20   4 -13 2178.33  101.79
  20   4 -13 2094.99   97.35
  20  -4 -13 1969.79   98.93
  20  -4 -12   23.05    7.33
  20  -4 -12   20.09    6.05
  20   4 -12   27.87    6.68
  20   4 -12   27.50    7.37
  20  -4 -12   37.79    7.12
  20   4 -12   36.20    7.29
  20   4 -12   40.11    7.24
  20  -4 -11  454.74   28.15
  20   4 -11  469.94   28.74
  20   4 -11  482.42   31.68
  20   4 -11  477.85   28.91
  20  -4 -11  452.01   28.58
  20   4 -11  467.13   28.90
  20  -4 -11  450.23   30.55
  20  -4 -10    1.20    4.91
  20   4 -10   13.53    6.07
  20  -4 -10    2.70    3.81
  20   4 -10    5.61    4.34
  20   4 -10    4.40    3.72
  20  -4  -9   17.80    6.93
  20   4  -9   17.83    6.14
  20  -4  -9    9.82    4.48
  20   4  -9   13.87    4.80
  20   4  -9   17.96    5.00
  20  -4  -8    2.35    4.82
  20  -4  -8   -0.88    3.72
  20   4  -8    2.30    4.84
  20   4  -8    1.83    3.31
  20   4  -8    4.49    3.47
  20  -4  -7  573.67   33.22
  20   4  -7  480.62   28.59
  20  -4  -7  514.81   30.38
  20   4  -7  523.39   30.79
  20   4  -7  519.86   32.43
  20  -4  -6    1.09    4.76
  20  -4  -6   11.37    4.09
  20   4  -6   15.33    4.81
  20   4  -6    3.21    4.17
  20  -4  -5   93.41   11.88
  20  -4  -5   77.92   10.47
  20   4  -5   72.88   10.13
  20   4  -5   95.80   11.51
  20  -4  -4   39.88    8.77
  20   4  -4   37.14    9.89
  20  -4  -3  118.60   14.90
  20  -4  -3  116.68   15.06
  20   4  -3  147.64   17.33
  20  -4  -2   10.15    5.47
  20  -4  -2    5.65    5.99
  20   4  -2    9.68    7.41
  20  -4  -1 1505.14   74.39
  20  -4  -1 1454.33   73.27
  20   4  -1 1451.37   72.97
  20  -4  -1 1487.93   73.10
  20   4  -1 1441.45   75.96
  20  -4   0   15.93    6.79
  20  -4   0   16.99    6.59
  20   4   0    9.44    5.75
  20  -4   0   13.68    5.95
  20   4   0   10.58    6.14
  20  -4   0   12.49    6.14
  20  -4   1 1765.21   82.94
  20  -4   1 1556.43   79.96
  20   4   1 1628.85   80.56
  20  -4   1 1612.81   80.46
  20   4   1 1486.13   82.14
  20  -4   1 1810.99   84.35
  20  -4   1 1802.06   82.29
  20  -4   2   23.31    7.08
  20  -4   2   26.54    6.65
  20   4   2   29.55    6.77
  20  -4   2    2.00    5.08
  20   4   2   25.65    7.50
  20  -4   2   19.64    7.06
  20   4   2   28.65    5.80
  20  -4   2   20.28    6.81
  20  -4   3  192.80   16.37
  20  -4   3  156.70   13.72
  20   4   3  160.67   14.29
  20  -4   3  152.82   14.17
  20   4   3  162.38   15.89
  20  -4   3  170.14   16.72
  20   4   3  161.78   13.17
  20  -4   3  155.89   15.01
  20  -4   4    8.24    5.08
  20  -4   4   21.95    3.88
  20   4   4    5.15    4.55
  20  -4   4    0.88    4.18
  20   4   4    2.12    4.11
  20  -4   4   12.46    5.79
  20   4   4    7.95    4.08
  20  -4   4    3.06    4.93
  20  -4   5   97.21   11.18
  20   4   5   89.30    9.94
  20  -4   5  119.48   10.84
  20  -4   5   65.95    6.98
  20   4   5   68.78    9.57
  20   4   5   99.28    9.50
  20  -4   5   83.60   11.41
  20  -4   5   69.58   10.18
  20  -4   6    8.14    4.99
  20  -4   6    9.72    5.34
  20   4   6    5.39    3.84
  20  -4   6    3.60    4.56
  20  -4   7   14.13    4.95
  20  -4   7    7.91    4.88
  20   4   7    4.42    3.07
  20  -4   7    7.40    4.50
  20  -4   8   -0.78    3.78
  20   4   8    6.40    3.42
  20  -4   8   -0.74    3.64
  20  -4   9  331.93   20.24
  20   4   9  294.83   18.31
  20  -4   9  334.19   20.00
  20  -4  10    9.44    3.56
  20   4  10    3.18    2.64
  20  -4  10    2.86    3.17
  20   4  10    1.12    1.44
  20  -4  11  306.45   12.44
  20   4  11  252.54    9.99
  20  -4  12   25.84    4.09
  20   4  12   28.43    3.50
  20  -4  13  273.08   14.81
  20   6 -28   25.50    4.67
  20   6 -27    3.71    3.28
  20  -6 -27    0.63    2.93
  20   6 -26    4.51    4.53
  20  -6 -26   10.79    4.41
  20   6 -25  300.41   21.91
  20  -6 -25  296.86   20.80
  20  -6 -24   18.10    4.82
  20   6 -24   36.83    8.17
  20  -6 -24   25.53    6.68
  20  -6 -23   17.74    5.50
  20   6 -23   22.24    7.82
  20  -6 -23   16.95    6.41
  20  -6 -22   20.72    5.91
  20   6 -22   23.90    8.20
  20  -6 -22   31.94    8.36
  20  -6 -21  214.81   20.10
  20  -6 -21  218.42   18.24
  20  -6 -20  420.89   30.92
  20  -6 -20  478.03   30.07
  20  -6 -19  864.82   51.51
  20  -6 -19  930.07   50.39
  20   6 -18  211.20   20.82
  20  -6 -18  220.52   21.04
  20  -6 -18  255.53   20.49
  20   6 -17  482.75   33.23
  20  -6 -17  434.70   32.26
  20  -6 -17  477.02   31.19
  20  -6 -16   48.21    9.26
  20   6 -16   63.09   11.09
  20  -6 -16   43.60   10.02
  20  -6 -15    2.47    5.59
  20   6 -15   14.40    6.95
  20  -6 -15    5.39    5.82
  20   6 -14  322.43   25.18
  20  -6 -14  279.40   23.20
  20  -6 -14  317.61   23.76
  20  -6 -13    3.67    5.42
  20   6 -13    7.04    5.61
  20  -6 -13    6.89    5.20
  20   6 -12  262.25   21.71
  20   6 -12  217.38   18.08
  20  -6 -12  219.72   19.46
  20  -6 -11   68.18   10.86
  20   6 -11   95.43   12.91
  20   6 -11   82.94   10.26
  20   6 -10   15.12    6.39
  20   6 -10   10.47    4.89
  20   6  -9  795.60   44.09
  20   6  -9  654.24   38.40
  20  -6  -8   71.22   10.85
  20   6  -8   80.35   11.73
  20   6  -8   64.94    8.81
  20   6  -7  606.58   36.55
  20  -6  -7  519.14   34.10
  20   6  -6  299.51   25.70
  20   6  -6  291.86   23.37
  20  -6  -5  755.05   41.92
  20  -6  -5  734.26   40.26
  20   6  -5  863.18   48.97
  20   6  -5  716.34   43.58
  20  -6  -4   84.88   10.46
  20  -6  -4   58.15    8.65
  20   6  -4   52.73   11.45
  20   6  -4   61.38   10.29
  20  -6  -3   57.30    9.03
  20  -6  -3   53.20    9.06
  20  -6  -3   54.23    7.89
  20   6  -3   81.40   12.88
  20   6  -3   62.74    9.73
  20  -6  -2    1.01    4.13
  20  -6  -2    8.07    5.33
  20  -6  -2   -3.97    4.13
  20   6  -2    1.53    5.90
  20   6  -2    7.50    4.51
  20  -6  -1  107.87   11.58
  20  -6  -1   85.51   10.40
  20  -6  -1   72.59    8.79
  20   6  -1   96.83   13.99
  20   6  -1   95.45   10.95
  20  -6   0  132.53   12.77
  20  -6   0   86.97    9.38
  20  -6   0   96.17   10.83
  20   6   0  118.02   14.81
  20  -6   1    2.92    4.71
  20  -6   1    6.38    4.28
  20  -6   1    8.83    4.66
  20   6   1   11.04    6.25
  20  -6   2    3.75    4.44
  20  -6   2   -0.70    3.41
  20   6   2    5.24    5.94
  20  -6   3    0.89    3.95
  20  -6   3    1.16    2.88
  20   6   3    6.13    5.44
  20  -6   4  149.13   13.19
  20   6   4  145.73   15.09
  20  -6   5  300.65   20.01
  20   6   5  318.36   22.28
  20  -6   6  341.22   20.77
  20   6   6  316.77   21.79
  20  -6   7   27.72    5.12
  20   6   7   -0.68    2.08
  20  -6   8  338.83   13.63
  20   6   8   -0.49    0.67
  20  -6   9   52.59    6.01
  20  -6  10   38.38    4.71
  20  -6  11    9.46    2.39
  20   8 -24  500.22   26.19
  20  -8 -24  400.29   23.48
  20  -8 -23   30.09    4.99
  20   8 -23   34.20    6.56
  20  -8 -23   26.19    5.16
  20  -8 -22   40.39    6.69
  20   8 -22   35.79    7.53
  20  -8 -22   59.44    7.72
  20  -8 -21    3.08    3.72
  20   8 -21    1.08    4.65
  20  -8 -21    1.67    3.95
  20  -8 -20   10.18    4.50
  20   8 -20   10.50    5.65
  20  -8 -20   10.03    5.22
  20  -8 -19    0.90    4.53
  20   8 -19    2.46    5.03
  20  -8 -19    8.74    5.39
  20  -8 -18  215.03   18.12
  20  -8 -18  235.84   17.83
  20  -8 -17    4.74    4.67
  20  -8 -17   -4.09    5.49
  20  -8 -16   24.84    6.78
  20  -8 -16   20.16    6.07
  20  -8 -15    2.88    4.91
  20   8 -15    6.49    6.01
  20  -8 -15    0.97    4.07
  20   8 -14  772.44   31.29
  20  -8 -14  715.66   26.29
  20   8 -13   64.55   11.13
  20   8 -12 1849.85   91.99
  20  -8 -11    6.80    4.98
  20   8 -11   19.49    7.22
  20   8 -10  401.72   27.80
  20  -8 -10  355.08   24.35
  20  -8  -9    3.87    5.05
  20   8  -9   16.86    6.75
  20   8  -8   87.91   12.08
  20  -8  -8   95.49   10.90
  20   8  -7    1.28    5.38
  20   8  -6  226.79   19.76
  20   8  -5    2.95    6.21
  20   8  -5   -2.43    5.37
  20  -8  -4   68.83    9.16
  20   8  -4   87.25   13.13
  20   8  -4   87.15   11.37
  20  -8  -3    2.31    4.02
  20   8  -3    8.53    5.83
  20   8  -3   12.07    5.80
  20  -8  -2  442.54   25.62
  20   8  -2  440.08   31.21
  20   8  -2  457.44   28.78
  20  -8  -1    7.32    3.79
  20   8  -1   15.93    6.67
  20   8  -1   13.04    5.56
  20  -8   0  378.59   16.16
  20   8   0  454.74   24.20
  20   8   0   33.76    6.06
  20  -8   1    4.65    3.85
  20   8   1    3.56    5.62
  20  -8   2  131.39   11.24
  20   8   2  156.21   15.05
  20  -8   3    5.75    3.44
  20   8   3   12.93    5.44
  20  -8   4   82.39    7.86
  20   8   4   84.67   10.20
  20  -8   5    1.35    2.37
  20   8   5    5.14    3.75
  20  -8   6  106.06    7.98
  20   8   6  110.22    9.76
  20  -8   7   28.08    3.52
  20  10 -19  175.78   13.81
  20 -10 -19  214.45   13.49
  20  10 -18  127.47   11.59
  20  10 -18  142.01   12.35
  20 -10 -18  158.24   11.57
  20  10 -17  144.88   12.93
  20  10 -17  148.84   13.08
  20 -10 -17  142.07   11.50
  20  10 -16   46.87    7.89
  20  10 -16   55.06    8.10
  20  10 -15    3.77    4.27
  20  10 -14  355.93   23.49
  20 -10 -14  312.79   19.85
  20 -10 -13   42.71    6.13
  20  10 -13   33.01    7.41
  20  10 -12  185.90   16.31
  20  10 -12  189.90   15.90
  20 -10 -12  182.25   13.51
  20  10 -11    3.05    4.80
  20  10 -11    0.94    3.96
  20  10 -10   -1.02    4.90
  20  10 -10    0.94    4.04
  20  10  -9   87.07   10.85
  20  10  -9   70.22    9.54
  20  10  -8  110.63   12.03
  20  10  -8   89.82   10.72
  20 -10  -7  240.38   14.95
  20  10  -7  229.37   18.32
  20  10  -7  213.89   16.98
  20 -10  -6  403.11   22.74
  20  10  -6  442.96   27.68
  20  10  -6  470.25   26.99
  20  10  -5  137.80   12.27
  20  10  -5  154.90   11.81
  20  10  -4   35.58    7.29
  20  10  -4   39.26    6.79
  20  10  -3    9.18    4.16
  20  10  -2   11.77    3.82
  20  10  -1   -0.51    1.55
  20  10   1  107.08   10.04
  20  10   2    0.55    2.61
  21  -1 -31   51.37    5.35
  21   1 -31   49.22    5.28
  21  -1 -30  195.61   13.52
  21   1 -30  212.52   13.82
 -21   1  29    5.35    2.73
 -21  -1  29    5.90    2.85
  21  -1 -29    7.72    3.89
  21   1 -29    2.60    3.20
 -21   1  28   -2.06    3.03
  21  -1 -28   -0.75    4.09
  21   1 -28    0.76    4.08
  21   1 -27  147.08   13.07
 -21   1  27  129.53   10.68
  21   1 -26  336.24   22.47
 -21   1  26  320.40   19.76
  21   1 -25   80.95   10.23
 -21   1  25   80.22    8.65
  21   1 -24  222.64   18.12
 -21   1  24  212.83   15.63
  21   1 -23  160.31   15.39
  21  -1 -22   42.42    9.00
  21   1 -22   32.82    7.70
  21  -1 -21   59.78   10.49
  21   1 -21   45.15    9.22
  21  -1 -20  763.10   42.20
  21   1 -20  803.14   43.24
  21   1 -20  746.21   43.20
  21  -1 -20  756.19   45.13
  21  -1 -19    6.87    4.74
  21   1 -19   -1.02    3.96
  21  -1 -19    6.32    6.11
  21   1 -19    6.60    5.31
  21   1 -18  627.31   35.57
  21   1 -18  578.24   35.40
  21  -1 -18  558.65   36.08
  21   1 -18  610.49   35.99
  21   1 -17    9.20    4.93
  21  -1 -17    3.36    4.84
  21   1 -17   -2.18    5.36
  21   1 -17   -1.06    4.24
  21   1 -16   21.47    5.79
  21  -1 -16   25.72    6.47
  21   1 -16   33.56    7.34
  21   1 -16   34.98    7.19
  21   1 -15   31.86    7.54
  21   1 -15   37.86    7.45
  21  -1 -15   39.91    7.25
  21   1 -15   42.84    8.38
  21   1 -15   49.93    8.25
  21   1 -14  489.51   30.55
  21   1 -14  504.97   31.57
  21   1 -14  459.82   30.29
  21   1 -14  506.05   29.82
  21   1 -13  370.73   24.27
  21   1 -13  330.75   24.12
  21   1 -13  343.17   23.67
  21   1 -13  294.03   21.23
  21   1 -12  745.21   41.75
  21   1 -12  770.43   43.36
  21   1 -12  729.44   41.62
  21   1 -12  732.54   39.15
  21   1 -11   33.83    7.98
  21   1 -11   30.17    6.78
  21   1 -11   27.89    6.28
  21  -1 -10  108.94   12.40
  21   1 -10   87.74   11.40
  21   1 -10   85.81   10.41
  21   1  -9    4.18    4.54
  21   1  -9   10.24    5.72
  21  -1  -9   13.09    6.31
  21   1  -9   19.20    5.36
  21   1  -8  155.28   14.97
  21  -1  -8  141.19   14.83
  21   1  -8  146.44   13.92
  21   1  -7  351.34   24.49
  21  -1  -7  386.71   25.84
  21   1  -7  327.17   23.60
  21   1  -6   93.54   11.88
  21  -1  -6  104.65   12.60
  21   1  -6  119.32   12.36
  21   1  -6  100.01   10.50
  21   1  -5   15.27    6.16
  21  -1  -5   20.25    7.20
  21   1  -5    5.97    5.02
  21  -1  -5   15.60    5.67
  21   1  -5   12.25    4.35
  21   1  -4    4.32    5.23
  21  -1  -4    7.15    5.76
  21   1  -4   12.99    5.64
  21  -1  -4    6.97    5.28
  21   1  -4   14.43    5.20
  21   1  -3   11.59    5.49
  21  -1  -3    7.11    6.06
  21  -1  -3    4.07    4.51
  21   1  -3    9.70    4.43
  21   1  -2  342.22   22.94
  21  -1  -2  321.71   22.95
  21   1  -2  248.36   20.26
  21  -1  -2  341.68   22.78
  21   1  -2  298.09   20.99
  21  -1  -2  287.12   19.64
  21   1  -1   41.76    8.17
  21  -1  -1   41.80    7.98
  21   1  -1   39.94    6.89
  21  -1  -1   33.86    7.42
  21   1  -1   34.57    7.07
  21  -1  -1   48.28    7.32
  21   1   0  316.43   22.79
  21  -1   0  349.93   23.86
  21   1   0  282.77   20.96
  21  -1   0  282.49   22.14
  21   1   0  356.72   24.59
  21  -1   0  332.79   23.41
  21   1   0  332.38   22.47
  21  -1   0  342.52   21.64
  21   1   1    3.96    4.38
  21  -1   1   -2.15    5.67
  21  -1   1   -1.04    4.60
  21   1   1   -4.80    6.56
  21  -1   1    1.07    4.62
  21   1   1    1.92    4.14
  21  -1   1    1.70    3.93
  21   1   1   -0.72    3.27
  21   1   2   67.61    9.31
  21  -1   2   68.01    9.74
  21  -1   2   60.97    8.10
  21   1   2   78.99   10.69
  21  -1   2   72.93   10.29
  21   1   2   63.96    9.10
  21  -1   2   64.40    8.76
  21   1   2   67.86    8.30
  21   1   3  152.92   13.74
  21  -1   3  152.53   14.45
  21  -1   3  111.13   11.19
  21   1   3  139.32   14.32
  21  -1   3  129.79   13.53
  21   1   3  120.95   12.90
  21  -1   3  116.59   12.46
  21   1   3  125.42   11.94
  21   1   4   35.58    6.66
  21  -1   4   27.92    7.13
  21  -1   4   52.22    6.31
  21   1   4   55.07    9.25
  21  -1   4   42.47    8.12
  21   1   4   28.92    6.78
  21  -1   4   39.76    7.04
  21   1   4   33.31    6.23
  21   1   5    1.56    3.69
  21  -1   5   -0.90    4.37
  21   1   5   -1.01    5.16
  21  -1   5    4.65    4.84
  21   1   5    2.58    3.91
  21  -1   5    2.37    3.75
  21   1   5    0.70    3.51
  21   1   6   23.90    5.39
  21  -1   6   20.07    5.61
  21   1   6   16.58    6.08
  21  -1   6   18.19    5.68
  21   1   6   25.13    5.77
  21  -1   6   16.38    5.07
  21   1   6   18.60    4.74
  21   1   7   40.81    6.06
  21  -1   7   52.38    7.61
  21  -1   7   39.18    7.00
  21   1   7   50.68    7.34
  21  -1   7   36.57    6.27
  21   1   7   39.89    6.25
  21  -1   8    8.11    3.81
  21   1   8   -0.70    3.36
  21  -1   8   -1.26    3.29
  21   1   8    1.73    3.15
  21  -1   9   26.38    4.73
  21   1   9   24.03    5.09
  21  -1   9   23.95    4.77
  21   1   9   17.33    4.04
  21  -1  10    1.96    2.64
  21   1  10   -0.56    2.83
  21  -1  10    2.03    2.63
  21   1  10    2.34    2.75
  21  -1  11   38.22    4.74
  21   1  11   48.34    5.76
  21  -1  11   57.10    5.76
  21   1  11   44.43    5.14
  21  -1  12    7.73    2.92
  21   1  12    9.99    2.86
  21  -1  12    7.33    2.59
  21   1  12    5.92    2.18
  21  -1  13    1.02    1.86
  21   1  13   -0.33    1.67
  21  -1  13    1.13    1.62
  21   3 -30   19.95    4.58
  21  -3 -29   39.51    5.22
  21   3 -29   34.06    4.99
  21  -3 -28   13.90    4.06
  21   3 -28   23.34    4.67
  21  -3 -27  200.40   14.67
  21   3 -27  199.35   14.48
 -21   3  27  190.23   13.40
 -21  -3  27  207.36   13.41
  21  -3 -26  145.70   12.62
  21   3 -26  133.05   12.22
  21  -3 -26  128.32   13.53
 -21   3  26  168.38   12.05
 -21  -3  26  144.54   11.16
  21  -3 -25  832.25   44.66
  21   3 -25  852.70   44.77
  21  -3 -25  799.00   46.66
 -21   3  25  921.38   43.51
 -21  -3  25  849.65   42.66
  21  -3 -24   16.69    6.63
  21  -3 -24    2.61    4.05
  21   3 -24   16.92    5.52
 -21   3  24   18.66    5.06
 -21  -3  24   12.40    4.48
  21  -3 -23   40.20    8.80
  21  -3 -23   44.77    7.93
  21   3 -23   49.45    8.19
 -21   3  23   52.42    7.53
 -21  -3  23   44.67    6.76
  21  -3 -22   68.86   11.14
  21  -3 -22   53.83    8.39
  21   3 -22   56.86    8.63
  21  -3 -21  129.13   12.53
  21   3 -21  146.74   13.47
  21  -3 -21  101.65   14.00
  21  -3 -20  183.63   15.02
  21   3 -20  182.35   15.60
  21  -3 -20  148.98   16.51
  21  -3 -20  146.48   15.05
  21  -3 -19  554.41   32.72
  21   3 -19  568.81   33.49
  21  -3 -19  565.83   35.88
  21  -3 -19  545.04   34.26
  21  -3 -18  276.53   19.96
  21   3 -18  294.13   20.56
  21  -3 -18  297.46   20.39
  21   3 -18  255.99   19.96
  21  -3 -18  233.89   21.09
  21   3 -18  275.89   20.72
  21  -3 -18  259.01   21.06
  21  -3 -17   17.99    6.57
  21  -3 -17   13.17    4.83
  21   3 -17    9.66    4.50
  21  -3 -17   11.87    5.40
  21  -3 -17   15.34    5.26
  21   3 -17    6.05    4.16
  21   3 -17   17.61    5.59
  21  -3 -16   21.79    7.44
  21  -3 -16   22.98    5.76
  21   3 -16   23.37    5.70
  21  -3 -16    6.63    5.29
  21  -3 -16   24.19    6.11
  21   3 -16   22.17    6.51
  21   3 -16   26.73    6.71
  21  -3 -15  224.91   17.71
  21   3 -15  236.43   18.32
  21  -3 -15  229.32   17.76
  21   3 -15  217.50   17.49
  21  -3 -15  176.64   16.69
  21   3 -15  223.62   18.11
  21  -3 -15  239.78   19.90
  21  -3 -14    1.21    5.21
  21  -3 -14    1.97    3.93
  21   3 -14   -1.00    4.62
  21  -3 -14    1.95    4.22
  21   3 -14    3.02    4.35
  21   3 -14    8.87    4.76
  21  -3 -13  245.27   19.54
  21   3 -13  256.07   19.82
  21  -3 -13  285.00   20.23
  21   3 -13  251.70   19.56
  21   3 -13  296.54   22.43
  21   3 -13  274.56   20.06
  21  -3 -13  266.91   21.37
  21   3 -12  131.08   13.39
  21   3 -12  131.83   11.95
  21  -3 -12  137.37   13.17
  21   3 -12  135.17   13.44
  21   3 -12  128.60   14.11
  21   3 -12  138.09   12.84
  21  -3 -12  118.74   13.83
  21  -3 -12  131.11   13.55
  21  -3 -11   44.69    9.15
  21   3 -11   60.52    7.62
  21  -3 -11   50.69    8.19
  21   3 -11   52.24    8.33
  21   3 -11   34.62    7.80
  21  -3 -11   36.67    7.36
  21   3 -11   51.72    8.21
  21   3 -11   43.83    7.01
  21   3 -10   37.23    5.95
  21   3 -10   35.13    7.21
  21  -3 -10   24.90    6.11
  21   3 -10   49.40    7.42
  21   3 -10   37.64    6.27
  21  -3  -9  443.85   26.18
  21   3  -9  418.05   26.01
  21   3  -9  395.78   26.00
  21   3  -8   93.77   10.15
  21  -3  -8  101.05   10.94
  21   3  -8  106.40   11.39
  21   3  -7  368.54   24.40
  21  -3  -7  411.98   25.89
  21   3  -7  416.07   26.15
  21  -3  -6   46.11    9.02
  21   3  -6   56.63    7.04
  21  -3  -6   33.23    6.99
  21   3  -6   42.51    7.92
  21  -3  -5  985.29   49.68
  21  -3  -5  911.07   47.24
  21   3  -5  951.13   47.90
  21   3  -5 1049.45   51.89
  21  -3  -4   63.37    9.64
  21   3  -4   65.37    7.89
  21   3  -4   80.76   11.36
  21  -3  -3  108.11   12.76
  21   3  -3  120.73   10.58
  21  -3  -3  110.85   12.94
  21   3  -3   90.63   12.34
  21  -3  -3  115.56   12.80
  21  -3  -2  163.44   15.98
  21  -3  -2  141.90   15.13
  21   3  -2  125.11   14.88
  21  -3  -2  160.04   16.03
  21  -3  -1   18.28    6.30
  21  -3  -1   13.36    6.33
  21   3  -1   23.75    6.96
  21  -3  -1   17.55    6.06
  21   3  -1   25.84    6.75
  21  -3  -1   12.84    6.34
  21   3  -1    9.54    3.99
  21  -3  -1   15.45    5.42
  21  -3   0   11.35    5.62
  21  -3   0    5.34    5.68
  21   3   0    3.36    4.88
  21  -3   0   10.90    6.25
  21   3   0   11.76    5.20
  21  -3   0    9.41    5.93
  21   3   0    9.92    4.21
  21  -3   0    9.36    5.07
  21  -3   1    3.36    4.83
  21  -3   1   12.09    5.59
  21   3   1    3.29    5.29
  21  -3   1   13.87    5.55
  21   3   1    7.04    3.63
  21  -3   1    0.95    4.41
  21  -3   2   26.14    7.20
  21  -3   2   34.34    6.98
  21   3   2   38.88    7.46
  21  -3   2   42.07    7.81
  21   3   2   26.86    6.03
  21  -3   2   44.66    7.81
  21  -3   3   46.30    6.28
  21   3   3   33.82    7.42
  21  -3   3   51.59    8.35
  21   3   3   28.20    5.98
  21  -3   3   36.32    7.20
  21  -3   4   36.26    5.10
  21   3   4   46.76    7.83
  21  -3   4   29.99    6.92
  21   3   4   41.32    6.75
  21  -3   4   36.64    7.29
  21  -3   5  258.43   16.78
  21   3   5  303.39   19.94
  21  -3   5  272.75   19.18
  21  -3   5  333.19   21.83
  21   3   5  305.28   19.42
  21  -3   5  359.71   21.26
  21   3   5  268.52   17.53
  21   3   6  146.93   11.05
  21  -3   6  164.02   10.91
  21  -3   6    3.55    4.60
  21   3   6   12.44    4.58
  21  -3   6   10.87    4.89
  21   3   6    6.94    3.39
  21  -3   7  136.00   12.92
  21  -3   7  139.68   13.08
  21   3   7  137.30   12.03
  21  -3   7  137.60   12.41
  21   3   7  102.84   10.21
  21  -3   8    8.33    4.02
  21  -3   8    1.42    3.49
  21   3   8    2.89    2.85
  21  -3   8    0.63    3.34
  21   3   8    0.45    1.57
  21  -3   9   44.31    5.89
  21  -3   9   56.51    6.51
  21   3   9   54.49    5.77
  21  -3   9   54.54    6.17
  21  -3  10    8.78    3.34
  21  -3  10    5.86    3.21
  21   3  10   10.62    2.99
  21  -3  10   10.10    3.28
  21   3  10    0.33    0.96
  21  -3  11    1.26    2.26
  21  -3  11    0.89    2.46
  21   3  11    0.36    2.05
  21  -3  11    0.81    2.10
  21  -3  12    0.94    1.82
  21   3  12    0.82    1.52
  21   5 -28    4.80    3.57
  21   5 -27  396.62   25.17
  21  -5 -27  411.39   23.95
  21   5 -26   41.74    7.73
  21  -5 -26   37.41    6.68
  21   5 -25  979.11   22.25
  21  -5 -25 1030.50   30.21
  21  -5 -24   21.28    6.34
  21   5 -24   14.69    4.22
  21  -5 -23  491.13   26.88
  21   5 -23  453.31   26.44
  21  -5 -23  495.37   30.75
 -21  -5  23  468.10   24.99
  21  -5 -23  435.47   27.03
  21  -5 -22    3.64    4.31
  21   5 -22    8.51    6.71
  21  -5 -22    8.23    5.56
  21  -5 -22    2.20    3.68
  21   5 -22    5.90    3.97
 -21  -5  22    4.33    2.87
  21  -5 -21   10.28    5.62
  21   5 -21    7.30    6.61
  21  -5 -21    9.18    4.31
  21  -5 -21    7.38    5.58
  21   5 -21   10.90    4.52
 -21   5  21    2.37    3.63
 -21  -5  21    4.01    3.51
  21  -5 -20   -1.12    4.71
  21  -5 -20    6.29    4.09
  21  -5 -20    1.27    5.47
  21   5 -20    0.81    3.81
 -21  -5  20    7.19    3.33
  21  -5 -19  118.38   11.53
  21   5 -19  104.04   11.17
  21   5 -19  129.59   16.06
  21  -5 -19  108.45   13.60
  21  -5 -18  166.39   14.01
  21   5 -18  149.92   13.67
  21   5 -18  196.36   19.24
  21  -5 -18  165.22   16.90
  21  -5 -18  215.95   18.37
  21  -5 -17   16.26    7.14
  21   5 -17   50.05   10.03
  21  -5 -17   25.20    5.84
  21   5 -17   26.16    5.88
  21  -5 -17   40.37    8.43
  21  -5 -16   30.24    8.13
  21   5 -16   26.66    8.51
  21  -5 -16   23.68    5.49
  21   5 -16   20.31    5.26
  21  -5 -16   19.70    6.40
  21  -5 -15  324.99   21.88
  21   5 -15  355.04   22.61
  21   5 -15  400.72   27.57
  21  -5 -15  320.30   23.95
  21  -5 -15  338.63   25.40
  21  -5 -14   30.14    8.01
  21   5 -14   29.75    8.42
  21  -5 -14   16.41    5.40
  21   5 -14   26.10    6.22
  21  -5 -13 1235.40   62.38
  21   5 -13 1285.65   62.83
  21   5 -13 1315.09   67.83
  21   5 -13 1284.69   64.16
  21  -5 -13 1256.14   66.62
  21  -5 -12  308.17   20.03
  21   5 -12  254.82   18.97
  21   5 -12  341.23   24.41
  21   5 -12  251.10   19.65
  21  -5 -12  300.49   23.14
  21  -5 -11  656.98   37.31
  21   5 -11  699.17   37.74
  21   5 -11  756.60   42.61
  21   5 -11  703.42   38.43
  21  -5 -11  672.11   41.36
  21  -5 -10   30.33    7.73
  21  -5 -10   19.49    5.16
  21   5 -10   26.86    5.90
  21   5 -10   16.32    6.36
  21   5 -10   19.08    4.96
  21  -5  -9   41.90    8.95
  21  -5  -9   66.41    8.48
  21   5  -9   48.44    7.55
  21   5  -9   67.30   10.42
  21  -5  -8    0.81    4.48
  21   5  -8    1.60    3.55
  21   5  -8    2.37    5.00
  21   5  -7  365.29   25.90
  21  -5  -6    1.05    4.31
  21   5  -6    7.59    6.05
  21   5  -6    5.53    4.65
  21  -5  -5  188.64   16.35
  21   5  -5  196.41   19.52
  21   5  -5  154.65   15.22
  21  -5  -4    3.17    4.44
  21  -5  -4    7.86    5.83
  21   5  -4   -2.72    5.24
  21  -5  -4   -5.76    5.86
  21   5  -4    2.92    6.30
  21  -5  -3   46.51    8.55
  21  -5  -3   44.37    8.56
  21   5  -3   39.39    7.15
  21  -5  -3   45.71    7.96
  21   5  -3   42.62    9.68
  21  -5  -2  185.69   16.17
  21  -5  -2  162.90   15.18
  21   5  -2  161.65   14.30
  21  -5  -2  170.41   14.85
  21   5  -2  164.00   17.38
  21  -5  -1  209.18   17.36
  21   5  -1  198.19   15.93
  21  -5  -1  217.47   17.16
  21  -5  -1  198.19   16.19
  21   5  -1  213.01   19.49
  21  -5   0    1.03    4.85
  21  -5   0    3.68    4.35
  21   5   0    5.57    3.92
  21  -5   0   -0.86    3.98
  21   5   0    6.37    5.36
  21  -5   1   66.61    9.35
  21  -5   1   49.62    7.80
  21   5   1   44.64    7.03
  21  -5   1   32.73    6.63
  21   5   1   40.96    9.13
  21  -5   2  125.34   12.37
  21   5   2  104.75   10.26
  21  -5   2  117.69   10.90
  21  -5   2  121.17   11.04
  21   5   2  109.99   12.92
  21  -5   3    3.58    4.29
  21  -5   3   21.92    3.64
  21   5   3    5.95    4.39
  21   5   3    7.14    5.79
  21  -5   4    1.66    4.07
  21  -5   4   15.24    2.69
  21   5   4   14.60    4.67
  21   5   4    8.05    4.63
  21  -5   5   -0.76    3.67
  21  -5   5   -0.58    0.88
  21   5   5   -0.74    1.76
  21  -5   6    6.18    3.82
  21  -5   7    2.45    3.13
  21  -5   8    0.54    2.70
  21  -5   9   15.73    3.63
  21  -5  10    3.07    2.16
  21   7 -26   45.86    5.85
  21   7 -25   20.17    4.89
  21  -7 -25   19.31    4.13
  21   7 -24   30.92    6.33
  21  -7 -24   29.31    5.26
  21  -7 -23    5.97    3.52
  21   7 -23   10.85    5.72
  21  -7 -23    3.63    3.91
  21   7 -22  416.20   26.99
  21  -7 -22  379.25   24.29
  21  -7 -22  375.05   23.35
  21  -7 -21  240.61   18.62
  21  -7 -21  274.19   18.90
  21  -7 -20 1428.65   74.15
  21  -7 -20 1643.35   75.39
  21  -7 -19  232.70   19.12
  21  -7 -19  299.74   20.89
  21   7 -18  616.28   37.51
  21  -7 -18  567.55   34.38
  21  -7 -18  586.15   35.07
  21  -7 -17   84.54   10.61
  21  -7 -17   94.20   11.83
  21   7 -16  226.90   19.49
  21  -7 -16  178.16   15.92
  21  -7 -16  215.35   17.75
  21  -7 -15   -4.23    5.21
  21   7 -15    1.30    5.30
  21   7 -14  126.65   15.14
  21  -7 -14  163.50   15.02
  21  -7 -13   25.44    6.93
  21   7 -13   20.62    7.21
  21   7 -12    7.71    5.56
  21   7 -11   30.84    8.05
  21   7 -10    6.38    5.91
  21  -7  -9   72.01   10.24
  21   7  -9   82.29   11.53
  21   7  -8  388.67   28.86
  21   7  -8  321.47   25.00
  21   7  -7  321.26   25.73
  21   7  -7  271.83   22.16
  21   7  -6  496.07   33.13
  21   7  -6  410.19   28.84
  21   7  -5   84.26   12.99
  21   7  -5   79.92   11.00
  21  -7  -4    9.16    5.33
  21   7  -4   20.18    7.76
  21   7  -4   10.44    5.35
  21  -7  -3   64.11    8.92
  21   7  -3   82.46   12.43
  21   7  -3   70.39    9.45
  21  -7  -2   -0.83    3.58
  21  -7  -2   -2.36    3.79
  21   7  -2   -5.38    5.66
  21   7  -2    1.74    3.26
  21  -7  -1    1.63    3.68
  21  -7  -1    0.71    3.48
  21   7  -1   -2.57    5.26
  21  -7   0  195.42   14.86
  21  -7   0  172.39   13.01
  21   7   0  179.27   17.30
  21  -7   1    4.50    4.16
  21  -7   1   -0.99    2.43
  21   7   1    6.76    5.86
  21  -7   2    3.51    3.65
  21   7   2    9.27    5.27
  21  -7   3   12.22    4.34
  21   7   3   17.38    5.82
  21  -7   4    7.51    3.40
  21   7   4    3.12    3.78
  21  -7   5   14.76    3.72
  21   7   5   23.87    5.06
  21  -7   6   92.03    6.74
  21   7   6   -0.45    0.97
  21  -7   7   58.64    5.58
  21  -7   8   37.66    3.96
  21   9 -21   -1.27    2.87
  21   9 -21   -1.34    2.82
  21   9 -20  122.94   12.04
  21   9 -20  150.36   12.95
  21  -9 -20  158.12   11.49
  21  -9 -19   22.06    4.85
  21   9 -19   23.23    6.18
  21   9 -19   26.01    6.06
  21   9 -18  136.49   13.46
  21  -9 -18  122.78   11.15
  21  -9 -17    2.80    3.58
  21   9 -17    1.05    4.74
  21  -9 -16   33.53    6.10
  21   9 -16   49.06    8.89
  21   9 -15   30.19    7.45
  21   9 -15   16.29    5.63
  21   9 -14  551.40   33.70
  21   9 -14  513.84   32.13
  21   9 -13   67.67   10.48
  21   9 -13   86.61   10.99
  21  -9 -13   87.48    9.25
  21   9 -12  851.16   44.88
  21   9 -12  807.56   43.04
  21   9 -11    4.64    5.13
  21   9 -11    4.10    5.15
  21   9 -10  156.71   15.08
  21   9 -10  116.83   12.82
  21   9  -9   47.61    8.92
  21   9  -9   35.13    7.32
  21   9  -8    7.84    4.65
  21   9  -7  109.40   11.85
  21  -9  -6   16.72    4.62
  21   9  -6   20.95    5.82
  21  -9  -5    5.65    3.58
  21   9  -5    1.72    4.23
  21  -9  -4  100.32    8.81
  21   9  -4  115.97   12.94
  21   9  -4  121.77   11.39
  21   9  -3   81.57   10.36
  21   9  -3   59.52    7.27
  21   9  -2  523.27   22.60
  21   9  -2   -0.60    1.65
  21   9  -1    3.66    4.51
  21   9   0  448.83   27.05
  21   9   1   18.62    5.19
  21   9   2  276.99   17.82
  21   9   3    3.02    2.58
  21  11  -9  289.83   17.58
  21  11  -8  139.03   10.67
  21  11  -7  434.97   23.70
  22   0 -30   44.02    5.58
  22   0 -29    2.42    3.09
  22   0 -28  470.03   25.25
 -22   0  28  387.81   22.14
  22   0 -27    5.65    4.34
 -22   0  27    2.60    3.01
  22   0 -26 2549.36  111.78
 -22   0  26 2314.12  107.74
  22   0 -25    5.67    5.25
 -22   0  25    7.96    4.06
  22   0 -24  860.91   46.48
  22   0 -23    4.09    5.22
  22   0 -22   68.91    9.79
  22   0 -21    1.06    4.57
  22   0 -20   28.89    7.26
  22   0 -19   -2.15    4.99
  22   0 -18   10.37    4.71
  22   0 -18    7.58    5.02
  22   0 -17    1.08    4.87
  22   0 -17    3.14    4.17
  22   0 -17   -1.08    4.68
  22   0 -16  773.17   43.73
  22   0 -16  847.14   45.04
  22   0 -16  740.59   43.59
  22   0 -15    1.19    5.37
  22   0 -15    8.53    4.60
  22   0 -15    1.08    4.91
  22   0 -14  291.72   21.66
  22   0 -14  268.46   21.85
  22   0 -14  297.45   21.76
  22   0 -13   -9.74    6.65
  22   0 -13    4.33    4.31
  22   0 -13    1.07    4.75
  22   0 -12  533.06   33.68
  22   0 -12  622.91   35.83
  22   0 -12  535.09   33.58
  22   0 -11    5.44    4.70
  22   0 -11   -3.62    5.83
  22   0 -11    5.26    5.08
  22   0 -10    3.25    3.92
  22   0 -10   10.78    6.23
  22   0 -10    5.21    5.13
  22   0  -9   -4.75    5.96
  22   0  -9    3.09    4.87
  22   0  -8   17.74    6.91
  22   0  -8   23.45    6.21
  22   0  -7   -1.18    5.57
  22   0  -7    7.08    4.68
  22   0  -6   -1.17    5.18
  22   0  -6    3.02    4.13
  22   0  -5    1.01    4.23
  22   0  -5   -4.49    4.16
  22   0  -4    6.88    5.76
  22   0  -4    8.30    5.05
  22   0  -3    2.18    4.71
  22   0  -3   10.15    5.86
  22   0  -3   -1.89    4.28
  22   0  -2  424.84   27.93
  22   0  -2  386.52   26.87
  22   0  -2  456.74   27.43
  22   0  -1   -1.05    4.96
  22   0  -1    1.95    4.42
  22   0   0   14.28    5.23
  22   0   0    4.73    5.73
  22   0   0   12.72    5.61
  22   0   0   11.79    4.04
  22   0   1    2.95    4.56
  22   0   1   -2.33    5.39
  22   0   1    0.97    4.67
  22   0   1    3.55    3.36
  22   0   2  401.23   24.33
  22   0   2  377.30   25.05
  22   0   2  440.33   25.17
  22   0   2  369.49   21.98
  22   0   3   -1.77    4.00
  22   0   3   -1.06    5.13
  22   0   3   -0.91    3.92
  22   0   3   -0.70    3.16
  22   0   4  156.44   14.23
  22   0   4  148.78   14.79
  22   0   4  142.43   13.97
  22   0   4  127.37   12.68
  22   0   5    6.72    3.82
  22   0   5    7.27    4.72
  22   0   5    4.81    3.63
  22   0   5    0.63    3.06
  22   0   6  738.48   37.78
  22   0   6  769.45   39.02
  22   0   6  773.19   38.77
  22   0   6  656.15   36.40
  22   0   7    4.66    3.66
  22   0   7    5.40    4.08
  22   0   7    2.15    2.73
  22   0   8  287.19   16.73
  22   0   8  308.32   18.02
  22   0   8  250.41   16.20
  22   0   9    3.78    3.13
  22   0   9    2.14    2.51
  22   0  10   35.14    4.70
  22   0  10   27.65    3.87
  22   0  11   -0.39    1.96
  22   0  11    0.29    1.78
  22   0  12    9.76    2.34
  22  -2 -30  157.98   10.74
  22   2 -30  192.36   11.48
  22  -2 -29  127.42    9.78
  22   2 -29  120.69    9.75
 -22   2  28   19.85    3.96
 -22  -2  28   20.95    3.77
  22  -2 -28   15.31    4.09
  22   2 -28   18.04    4.56
 -22   2  27    1.59    2.80
 -22  -2  27   -0.49    2.76
  22  -2 -27    0.71    3.67
  22   2 -27   -0.72    3.60
  22  -2 -26   36.60    6.50
  22   2 -26   29.66    6.51
 -22   2  26   35.77    5.88
 -22  -2  26   23.39    4.69
  22  -2 -25   29.96    6.40
  22   2 -25   45.27    7.67
 -22   2  25   20.36    4.93
 -22  -2  25   36.04    5.56
  22  -2 -24   29.62    6.51
  22   2 -24   36.17    7.25
 -22   2  24   46.81    6.70
 -22  -2  24   27.11    5.32
  22  -2 -23   39.55    7.48
  22   2 -23   35.87    7.65
  22  -2 -22  109.41   11.55
  22   2 -22  128.77   12.85
  22  -2 -22  110.61   13.06
  22  -2 -21  140.46   13.24
  22   2 -21  134.61   13.58
  22  -2 -21  133.05   14.48
  22  -2 -20  440.66   28.09
  22   2 -20  457.08   28.99
  22  -2 -20  471.70   30.07
  22  -2 -19  399.33   25.67
  22   2 -19  381.18   26.05
  22  -2 -19  409.47   27.08
  22  -2 -18  444.46   27.52
  22   2 -18  423.19   27.69
  22  -2 -18  391.36   26.76
  22   2 -18  452.26   28.37
  22  -2 -18  441.65   28.07
  22  -2 -17   41.99    7.72
  22   2 -17   33.47    6.99
  22  -2 -17   33.85    6.87
  22  -2 -17   30.73    6.97
  22   2 -17   34.49    7.54
  22   2 -17   24.76    6.63
  22  -2 -16  359.92   24.93
  22   2 -16  362.08   25.47
  22  -2 -16  380.30   25.27
  22   2 -16  386.38   25.77
  22   2 -16  398.71   25.41
  22  -2 -15   11.25    4.42
  22   2 -15    5.15    3.45
  22  -2 -15    1.01    4.15
  22   2 -15    1.04    4.27
  22   2 -15    0.93    3.69
  22  -2 -14    3.11    4.70
  22   2 -14    5.22    4.28
  22  -2 -14    5.09    4.61
  22   2 -14    2.08    4.49
  22   2 -14    4.36    4.04
  22   2 -13   40.37    7.85
  22  -2 -13   24.12    6.30
  22   2 -13   37.75    7.42
  22   2 -13   26.27    6.39
  22  -2 -13   31.67    6.96
  22   2 -13   28.97    6.83
  22   2 -13   33.03    6.11
  22   2 -12   35.38    7.69
  22  -2 -12   30.74    6.95
  22   2 -12   29.62    7.23
  22   2 -12   39.64    7.68
  22  -2 -12   34.56    7.50
  22   2 -12   50.47    8.74
  22   2 -11   13.06    5.76
  22  -2 -11   -3.18    4.91
  22   2 -11    1.06    4.69
  22  -2 -11    7.07    4.47
  22   2 -11   13.28    4.73
  22   2 -10  144.72   14.62
  22  -2 -10  163.09   14.62
  22   2 -10  168.32   14.78
  22   2  -9   97.97   11.86
  22  -2  -9  113.22   13.30
  22  -2  -9  112.81   11.98
  22   2  -9  113.99   12.10
  22   2  -8  607.95   36.59
  22  -2  -8  663.47   38.57
  22  -2  -8  655.53   36.84
  22   2  -8  628.20   36.67
  22   2  -7   30.55    6.45
  22  -2  -7   24.00    7.30
  22  -2  -7   30.11    6.77
  22   2  -7   13.96    5.45
  22   2  -6  259.62   19.70
  22  -2  -6  273.14   21.66
  22  -2  -6  288.53   20.89
  22   2  -6  297.46   21.33
  22   2  -6  306.90   22.15
  22  -2  -5  170.39   15.46
  22   2  -5  124.16   12.16
  22  -2  -5  171.78   15.79
  22  -2  -5  148.02   13.56
  22   2  -5  118.26   12.86
  22  -2  -4  216.21   18.02
  22   2  -4  170.88   14.68
  22   2  -4  202.64   14.85
  22  -2  -3   33.83    8.00
  22   2  -3   41.64    6.18
  22  -2  -3   31.72    7.24
  22   2  -3   36.35    6.47
  22   2  -2  121.18   11.31
  22  -2  -2  138.27   14.39
  22  -2  -2  148.67   14.58
  22   2  -2  148.11   12.59
  22   2  -1  224.51   17.22
  22  -2  -1  256.54   20.23
  22   2  -1  304.77   21.84
  22  -2  -1  314.99   21.85
  22  -2  -1  302.65   21.51
  22   2  -1  251.12   18.53
  22  -2  -1  308.03   19.48
  22  -2   0   48.07    8.73
  22   2   0   58.28    9.54
  22  -2   0   48.84    8.97
  22  -2   0   54.76    9.30
  22   2   0   48.85    7.71
  22  -2   0   39.57    7.25
  22  -2   1   93.70   12.08
  22   2   1  114.90   13.53
  22  -2   1  154.26   14.76
  22  -2   1  165.63   15.37
  22   2   1  141.38   13.16
  22  -2   1  117.04   12.41
  22  -2   2  156.83   14.61
  22  -2   2  134.85   12.19
  22   2   2  172.32   15.13
  22  -2   2  177.02   15.00
  22  -2   2  160.07   14.82
  22   2   2  160.99   13.57
  22  -2   2  126.85   12.49
  22  -2   3   86.94   10.57
  22  -2   3   77.12    7.90
  22   2   3   81.42   10.05
  22  -2   3   73.57    9.65
  22  -2   3   73.74   10.02
  22   2   3   63.17    8.73
  22  -2   3   74.56    8.87
  22  -2   4   13.55    5.39
  22   2   4    6.35    4.90
  22  -2   4    8.95    4.51
  22  -2   4   13.61    5.63
  22   2   4    5.35    4.20
  22  -2   4    5.16    3.92
  22   2   4    3.82    2.67
  22  -2   5  105.56   11.06
  22   2   5   95.09   10.48
  22  -2   5   90.58   10.29
  22   2   5   98.50   10.20
  22  -2   5  108.43   10.27
  22  -2   6   12.79    4.67
  22   2   6  198.92   12.30
  22  -2   6  194.72   11.75
  22   2   6   22.60    4.86
  22  -2   6   17.60    4.39
  22   2   6    0.49    1.92
  22  -2   7   57.42    6.98
  22   2   7  398.67   15.75
  22  -2   7  491.26   17.23
  22   2   7   74.29    7.31
  22  -2   7   64.63    6.55
  22  -2   8    2.89    2.90
  22   2   8    3.24    2.90
  22  -2   8    4.53    2.57
  22   2   8   -0.39    1.30
  22  -2   9  311.38   12.25
  22  -2   9  272.26   11.99
  22   2   9  306.02   12.01
  22  -2   9  308.19   11.64
  22  -2  10   60.38    5.30
  22  -2  10   59.84    5.56
  22  -2  10   61.61    5.14
  22  -2  11  145.97    9.62
  22   2  11  144.21    9.17
  22  -4 -27  114.08   10.87
  22   4 -27  615.72   18.54
  22  -4 -26    6.75    3.38
  22   4 -26   20.08    4.13
  22  -4 -25  715.87   36.93
  22   4 -25  697.34   36.63
  22  -4 -25  695.07   38.74
 -22   4  25  694.75   35.33
 -22  -4  25  748.98   35.77
  22  -4 -24   -2.86    4.87
  22  -4 -24    2.16    3.69
  22   4 -24    0.71    3.43
 -22   4  24    1.11    3.18
 -22  -4  24    0.56    3.22
  22  -4 -23  359.40   22.32
  22   4 -23  332.96   21.96
  22  -4 -23  343.20   24.08
 -22   4  23  370.13   21.06
 -22  -4  23  347.65   20.77
  22  -4 -22   -1.07    5.17
  22  -4 -22    1.60    3.45
  22   4 -22    2.43    3.91
 -22   4  22   -1.28    3.67
 -22  -4  22   -1.91    3.58
  22  -4 -21   94.56   10.45
  22   4 -21  102.10   10.77
  22  -4 -21  113.30   13.07
  22  -4 -20    2.06    4.68
  22  -4 -20    1.11    4.54
  22  -4 -20   10.04    4.50
  22   4 -20   17.35    5.50
  22  -4 -19    1.11    5.23
  22  -4 -19   -1.09    4.71
  22  -4 -19   -2.55    4.35
  22   4 -19   -1.78    4.77
  22  -4 -18   -1.16    5.00
  22   4 -18    4.02    5.79
  22  -4 -18   -1.05    4.19
  22  -4 -18    4.31    4.24
  22   4 -18   -0.90    3.98
  22  -4 -17   53.62    9.39
  22   4 -17   48.65   10.00
  22  -4 -17   51.49    8.08
  22  -4 -17   56.65    8.76
  22   4 -17   51.03    8.08
  22  -4 -16   36.25    8.61
  22   4 -16   55.32    9.87
  22  -4 -16   39.66    7.16
  22   4 -16   47.77    7.65
  22  -4 -15  859.99   46.50
  22   4 -15  898.31   47.21
  22   4 -15  927.21   50.59
  22  -4 -15  884.50   49.96
  22  -4 -14    9.68    6.20
  22   4 -14   15.92    6.81
  22  -4 -14    8.93    4.82
  22   4 -14   11.11    5.00
  22  -4 -13 1244.70   60.91
  22   4 -13 1184.49   60.91
  22   4 -13 1327.91   64.55
  22   4 -13 1172.11   60.18
  22  -4 -13 1156.08   63.30
  22  -4 -12    9.55    5.90
  22   4 -12   19.68    6.54
  22  -4 -12    8.94    4.52
  22   4 -12   16.63    5.53
  22   4 -12   17.87    4.93
  22  -4 -11  531.54   31.87
  22   4 -11  555.70   32.38
  22   4 -11  562.80   34.28
  22  -4 -10    6.20    4.69
  22   4 -10    7.32    4.50
  22   4 -10    9.77    5.51
  22  -4  -9  336.82   25.81
  22   4  -9  381.71   26.75
  22   4  -9  351.33   27.24
  22  -4  -8   51.76    8.01
  22   4  -8   51.65    8.04
  22   4  -8   53.65    8.73
  22   4  -7  971.25   23.76
  22   4  -7   21.64    6.60
  22   4  -6 1028.29   25.06
  22   4  -6   44.43   11.65
  22  -4  -5  435.16   31.71
  22  -4  -5  375.08   30.79
  22   4  -5  354.59   31.56
  22  -4  -4    1.09    4.60
  22  -4  -4    4.48    5.72
  22   4  -4    7.62    5.62
  22  -4  -3  108.75   12.04
  22  -4  -3   91.16   11.69
  22   4  -3   91.88   11.04
  22  -4  -3   90.18   11.18
  22   4  -3   93.17   12.32
  22  -4  -2    9.71    5.32
  22  -4  -2    1.04    4.84
  22   4  -2    5.02    5.22
  22  -4  -2    7.98    5.37
  22   4  -2   17.60    6.31
  22  -4  -1  321.93   22.07
  22  -4  -1  260.68   19.81
  22   4  -1  267.95   19.92
  22  -4  -1  257.61   19.69
  22   4  -1  290.10   21.77
  22  -4   0    7.25    5.20
  22  -4   0    3.67    4.61
  22   4   0    9.24    5.13
  22  -4   0    5.57    4.66
  22   4   0    5.18    4.80
  22  -4   1   43.84    7.90
  22  -4   1   32.46    6.53
  22   4   1   24.30    6.15
  22  -4   1   21.75    6.05
  22   4   1   24.60    5.97
  22  -4   2   18.92    6.00
  22  -4   2   29.07    4.70
  22   4   2   26.47    5.77
  22  -4   2   15.31    5.25
  22  -4   3   73.46    9.33
  22  -4   3   69.73    6.83
  22   4   3   61.94    7.81
  22  -4   3   56.63    7.64
  22  -4   4   -3.26    3.94
  22  -4   4   39.65    4.04
  22   4   4   48.17    7.90
  22   4   4   -0.49    1.26
  22  -4   5  174.47   11.62
  22   4   5  218.53   11.45
  22  -4   5  572.39   17.29
  22  -4   5  675.93   13.40
  22   4   6   -0.81    1.04
  22   4   7   -0.35    0.76
  22   4   8   -0.29    0.39
  22  -4  10    0.34    1.95
  22   6 -27    4.26    2.78
  22   6 -26  109.74   10.15
  22  -6 -25   65.10    7.18
  22  -6 -24  101.22    9.64
  22  -6 -23  132.95   11.98
  22  -6 -22   48.89    7.28
  22   6 -22   39.37    8.71
  22  -6 -22   51.46    7.70
  22   6 -21  251.29   20.01
  22  -6 -21  223.05   17.27
  22  -6 -21  212.22   17.02
  22   6 -20  294.67   22.44
  22  -6 -20  237.96   19.01
  22  -6 -20  295.23   20.73
  22  -6 -19  656.20   38.49
  22  -6 -19  688.69   40.09
  22   6 -18  186.92   17.48
  22  -6 -18  161.27   14.39
  22  -6 -18  162.27   15.68
  22  -6 -17   24.40    6.95
  22   6 -17   28.89    7.77
  22  -6 -16   38.17    8.54
  22   6 -16   55.13    9.94
  22  -6 -15   -2.26    5.67
  22   6 -15    1.25    5.11
  22  -6 -14   11.29    6.18
  22   6 -14    7.43    5.09
  22  -6 -13   78.66   11.00
  22   6 -13   82.31   11.81
  22  -6 -12   50.33    9.13
  22   6 -12   74.06   10.85
  22  -6 -11    7.77    5.14
  22   6 -11    6.00    5.32
  22   6 -10   76.70   11.05
  22   6  -9  242.02   19.99
  22   6  -8  278.38   24.50
  22   6  -8  295.19   21.92
  22  -6  -7   23.83    5.81
  22   6  -7   40.68    9.70
  22   6  -7   36.15    7.44
  22  -6  -6  217.96   17.67
  22  -6  -6  204.73   15.40
  22   6  -6  227.59   20.40
  22   6  -6  197.82   17.00
  22  -6  -5  128.85   11.84
  22  -6  -5  134.36   13.75
  22   6  -5  168.86   14.59
  22  -6  -4  111.22   10.18
  22  -6  -4  105.75   11.70
  22   6  -4   93.82   13.19
  22  -6  -3   33.34    6.98
  22  -6  -3   38.96    7.44
  22  -6  -3   25.69    5.02
  22   6  -3   36.05    8.44
  22  -6  -2  116.89   10.81
  22  -6  -2  104.35   10.05
  22   6  -2  104.28   12.31
  22  -6  -1   23.21    5.88
  22  -6  -1   26.69    5.77
  22   6  -1   15.07    6.09
  22  -6   0    9.88    4.45
  22  -6   0   12.08    4.22
  22   6   0   10.78    5.32
  22  -6   1   46.57    6.95
  22  -6   1   42.36    5.81
  22   6   1   26.60    7.49
  22  -6   2   16.56    4.88
  22  -6   2    9.32    1.97
  22   6   2   10.49    5.22
  22  -6   3   21.01    4.70
  22   6   3   10.37    3.83
  22  -6   4    9.43    3.60
  22   6   4   -0.58    1.49
  22  -6   5   27.04    4.71
  22  -6   6    4.05    2.65
  22  -6   7    9.13    2.75
  22  -6   8    6.78    2.14
  22   8 -23    6.61    3.08
  22  -8 -20   88.57    9.04
  22  -8 -19    5.67    3.94
  22   8 -19    6.74    4.65
  22   8 -18  126.28   13.44
  22  -8 -18  149.84   12.49
  22  -8 -17    2.32    3.88
  22   8 -17    6.16    4.65
  22  -8 -16    9.42    4.24
  22   8 -16    7.31    5.62
  22  -8 -15    2.37    3.66
  22   8 -15    4.22    4.78
  22  -8 -14   67.34    8.74
  22   8 -14   66.42    9.59
  22   8 -13    2.11    4.32
  22   8 -12  188.97   16.58
  22   8 -11   16.73    5.84
  22   8 -10    9.25    4.88
  22   8  -9    6.27    6.29
  22   8  -9    4.02    4.35
  22   8  -8   16.13    6.35
  22   8  -8    6.80    4.52
  22  -8  -7    0.76    3.74
  22   8  -7   -2.45    5.67
  22   8  -7    2.78    4.10
  22  -8  -6   -2.88    4.23
  22   8  -6   13.20    6.55
  22   8  -6    8.68    4.59
  22  -8  -5    1.34    3.44
  22   8  -5    8.15    5.15
  22   8  -5    7.98    4.56
  22  -8  -4    4.90    3.50
  22   8  -4    5.60    5.07
  22   8  -4   -0.71    2.47
  22  -8  -3   14.53    3.93
  22   8  -3   10.68    5.67
  22  -8  -2   -0.90    1.83
  22   8  -2   50.14    8.27
  22  -8  -1   -0.33    0.45
  22   8  -1   17.63    5.66
  22   8   0    3.35    4.28
  22   8   1    2.93    3.68
  22   8   2  144.20   11.49
  22   8   3   24.52    4.29
  22  10 -16   18.92    3.99
  22  10 -15   45.22    6.33
  22  10 -15   59.08    6.85
  22  10 -14   71.27    8.45
  22  10 -14   77.20    8.04
  22  10 -13   52.53    7.32
  22  10 -13   56.46    6.81
  22 -10 -12   19.10    3.84
  22  10 -12   25.03    5.43
  22  10 -12   16.91    4.40
  22 -10 -11   30.41    4.42
  22  10 -11   40.14    6.49
  22  10 -11   32.02    5.33
  22 -10 -10    5.88    2.81
  22  10 -10    1.49    3.44
  22  10 -10    5.37    3.31
  22 -10  -9    2.51    2.16
  22  10  -9    4.41    3.69
  22  10  -9    3.99    3.30
  22  10  -8  101.06    9.93
  22  10  -8   90.44    8.36
  22  10  -3    1.59    2.51
  23  -1 -30   25.92    3.74
  23   1 -30   26.13    3.84
  23  -1 -29   25.90    4.46
  23   1 -29   24.74    4.41
  23  -1 -28   77.03    7.98
  23   1 -28   67.09    7.66
 -23   1  27   16.01    3.89
 -23  -1  27   11.96    3.33
  23  -1 -27   18.17    4.72
  23   1 -27   18.56    4.46
  23   1 -26  331.41   20.67
 -23   1  26  280.50   17.69
  23   1 -25    3.47    4.18
 -23   1  25    1.76    3.15
  23   1 -24  213.70   16.56
 -23   1  24  180.30   13.72
  23   1 -23    3.85    3.95
  23   1 -22    4.98    4.81
  23   1 -21   50.83    8.77
  23   1 -20   15.53    5.60
  23   1 -19    2.09    4.63
  23  -1 -18   21.68    6.62
  23   1 -18   28.44    7.05
  23  -1 -17  257.32   19.88
  23   1 -17  223.31   18.67
  23  -1 -16   34.39    8.02
  23  -1 -16   52.41    8.34
  23   1 -16   38.38    7.69
  23   1 -16   41.37    7.99
  23   1 -15    2.11    4.98
  23  -1 -15   -2.35    5.44
  23  -1 -15    5.32    4.82
  23   1 -15    5.37    4.75
  23   1 -15    6.37    5.52
  23   1 -14   36.58    7.90
  23   1 -14   28.07    7.19
  23  -1 -14   39.30    8.39
  23   1 -14   24.37    6.99
  23   1 -13   -2.28    5.05
  23   1 -13    2.18    3.93
  23  -1 -13   -1.20    5.03
  23   1 -13   -1.05    4.66
  23   1 -12   -1.09    4.07
  23   1 -12    8.09    5.69
  23  -1 -12    1.20    5.04
  23   1 -12    1.04    4.73
  23   1 -11   -1.16    5.48
  23  -1 -11   15.53    6.92
  23   1 -11    4.15    4.70
  23   1 -10   17.17    6.45
  23  -1 -10    2.38    5.75
  23   1 -10    5.13    4.76
  23   1  -9    1.13    5.13
  23  -1  -9    2.38    5.38
  23   1  -9   -1.02    4.50
  23   1  -8   40.04    8.38
  23  -1  -8   46.20    8.97
  23   1  -8   44.41    8.13
  23   1  -7   31.59    7.42
  23  -1  -7    9.45    5.88
  23   1  -7   30.12    6.91
  23   1  -6   58.40    9.26
  23  -1  -6   71.44   10.52
  23   1  -6   47.98    8.76
  23   1  -5   15.47    5.88
  23  -1  -5   33.61    8.12
  23   1  -4   33.82    5.99
  23  -1  -4   15.95    6.57
  23   1  -4   15.92    5.00
  23  -1  -3   54.26    8.95
  23   1  -3   50.50    7.20
  23  -1  -3   65.02    9.69
  23  -1  -3   42.50    7.70
  23   1  -3   45.13    7.39
  23  -1  -2  282.68   20.59
  23   1  -2  248.39   19.95
  23  -1  -2  294.24   20.07
  23   1  -2  263.88   18.36
  23  -1  -1   18.61    6.37
  23   1  -1   26.19    7.26
  23  -1  -1   23.24    6.40
  23   1  -1   15.30    5.13
  23  -1  -1   13.54    3.98
  23  -1   0  458.33   26.57
  23   1   0  303.76   21.22
  23  -1   0  357.01   23.38
  23   1   0  433.23   26.66
  23  -1   0  357.64   24.26
  23   1   0  395.26   24.24
  23  -1   0  370.19   22.22
  23  -1   1    8.56    5.21
  23  -1   1   19.66    4.58
  23   1   1    3.19    5.06
  23  -1   1   12.01    5.07
  23   1   1   10.84    4.65
  23  -1   1   11.82    4.04
  23  -1   2   45.68    7.84
  23  -1   2   52.32    6.16
  23   1   2   46.02    8.39
  23  -1   2   38.83    7.30
  23   1   2   35.41    6.61
  23  -1   2   38.50    6.05
  23  -1   3   38.25    7.20
  23   1   3   35.21    7.16
  23  -1   3   31.44    6.66
  23   1   3   41.34    6.85
  23  -1   3   44.83    6.32
  23  -1   4  173.18   11.74
  23  -1   4  164.58   11.64
  23   1   4  133.88   10.30
  23  -1   4  156.63    9.87
  23  -1   5   71.51    7.70
  23   1   5   55.35    7.12
  23  -1   5   60.75    7.20
  23  -1   5   68.89    6.71
  23  -1   6   63.37    6.87
  23  -1   6   84.40    7.75
  23   1   6   87.73    7.93
  23  -1   6   65.54    6.22
  23  -1   7   19.35    4.12
  23  -1   7   19.02    4.36
  23   1   7   22.89    4.39
  23  -1   7   19.91    3.57
  23  -1   8    4.41    2.87
  23   1   8    4.17    2.79
  23  -1   8    2.92    2.05
  23   1   8    0.30    0.57
  23  -1   9   12.10    3.09
  23   1   9   13.66    3.18
  23  -1   9   14.11    2.67
  23  -1  10  167.34   10.20
  23   1  10  155.52    9.79
  23   3 -29   36.45    5.23
  23   3 -28    4.76    3.77
  23  -3 -28    2.86    2.24
  23   3 -28    6.40    2.80
  23  -3 -27   80.35    8.03
  23   3 -27   76.19    7.65
  23   3 -27  101.50   10.37
  23  -3 -26  118.97   10.25
  23   3 -26  116.16   10.13
 -23   3  26  112.72    9.23
 -23  -3  26  109.71    9.05
  23  -3 -25   26.01    5.31
  23   3 -25   13.89    4.37
 -23   3  25   21.16    4.46
 -23  -3  25   21.58    4.51
  23  -3 -24    6.61    4.02
  23   3 -24    7.57    4.26
 -23   3  24    4.14    3.53
 -23  -3  24    4.58    3.33
  23  -3 -23  142.69   12.74
  23   3 -23  138.90   12.68
 -23   3  23  174.87   12.49
 -23  -3  23  148.16   11.71
  23  -3 -22    0.93    4.00
  23  -3 -22    7.99    3.86
  23   3 -22    3.39    3.84
  23  -3 -21  378.97   24.75
  23   3 -21  453.50   26.48
  23  -3 -21  406.61   26.18
  23  -3 -20   46.13    7.84
  23  -3 -20   42.13    7.35
  23   3 -20   64.12    8.58
  23  -3 -19  556.83   32.28
  23   3 -19  603.71   33.48
  23  -3 -19  537.92   32.44
  23  -3 -18    7.54    4.13
  23  -3 -18    1.75    3.97
  23   3 -18    5.62    4.61
  23   3 -17   50.98    9.13
  23  -3 -17   40.18    7.07
  23   3 -17   39.76    7.47
  23   3 -16    9.03    5.46
  23  -3 -16    9.08    5.12
  23   3 -16   10.50    4.98
  23  -3 -15   91.10   10.46
  23   3 -15  109.40   11.76
  23   3 -15   88.67   11.51
  23   3 -14   10.59    5.14
  23  -3 -14   11.16    4.60
  23   3 -14   13.44    5.34
  23   3 -13   53.91    8.59
  23  -3 -13   56.18    8.54
  23   3 -13   39.45    7.83
  23   3 -12   82.19    8.08
  23   3 -12   52.50    8.53
  23  -3 -12   65.58    9.14
  23   3 -12   56.79    9.09
  23   3 -11  103.07    9.58
  23  -3 -11   90.76   10.62
  23   3 -11  103.65   11.43
  23   3 -11   78.79    9.99
  23   3 -10   61.01    7.15
  23  -3 -10   66.39   10.25
  23  -3 -10   46.52    7.92
  23   3 -10   49.71    8.53
  23  -3  -9   29.44    7.88
  23  -3  -9   21.28    5.98
  23   3  -9   14.30    5.87
  23  -3  -8   10.53    6.23
  23  -3  -8   10.11    4.75
  23   3  -8    9.50    4.99
  23  -3  -7    5.80    6.15
  23   3  -7    3.53    4.97
  23  -3  -7    6.38    4.76
  23   3  -7    4.73    4.68
  23   3  -6  113.47    9.26
  23   3  -6   33.97    8.40
  23   3  -5  237.37   12.48
  23   3  -5   12.97    5.79
  23  -3  -4   12.08    5.87
  23   3  -4    3.07    3.79
  23  -3  -3    2.17    5.37
  23  -3  -3    3.20    5.56
  23   3  -3   -3.23    5.61
  23  -3  -3    4.17    5.15
  23  -3  -2    9.62    5.76
  23  -3  -2   -5.08    5.39
  23   3  -2    5.28    5.21
  23  -3  -2   -3.07    5.52
  23  -3  -1  119.78   12.83
  23  -3  -1  107.45   11.65
  23   3  -1  107.16   12.06
  23  -3  -1  102.91   11.86
  23  -3   0  143.71   13.58
  23  -3   0  102.40   11.33
  23   3   0  141.19   13.12
  23  -3   0  118.17   12.30
  23  -3   1    1.92    4.90
  23   3   1    1.83    4.42
  23  -3   1    0.89    4.21
  23   3   1    0.59    2.55
  23   3   2   -1.67    3.95
  23  -3   2   -0.82    4.27
  23   3   2   -0.58    2.61
  23  -3   3   59.75    5.68
  23   3   3   44.35    7.10
  23  -3   3   36.72    6.35
  23   3   3   46.47    6.10
  23   3   4  100.81    9.25
  23  -3   4  108.24    9.02
  23  -3   5  259.13   18.28
  23   3   5  405.92   19.39
  23  -3   5  512.28   20.61
  23   3   5  190.91   15.74
  23  -3   6   40.83    5.70
  23   3   6    5.40    2.52
  23  -3   7  131.85    8.48
  23   3   7   -0.35    1.23
  23  -3   8    6.03    2.88
  23   3   8   -0.56    0.93
  23   5 -26  109.25   10.44
  23   5 -25  164.59   14.12
  23   5 -24   28.01    6.48
  23  -5 -24   13.38    4.05
  23   5 -23   26.42    6.58
  23   5 -23   19.62    4.06
  23  -5 -23   14.78    4.30
  23   5 -22   51.76    8.59
  23   5 -22   39.28    5.56
  23  -5 -22   35.32    6.41
  23   5 -21   30.26    7.65
  23  -5 -21   17.52    4.22
  23   5 -21   29.76    5.33
  23  -5 -21   21.79    5.37
 -23  -5  21   34.05    5.06
  23   5 -20    1.15    4.82
  23  -5 -20    1.91    3.26
  23   5 -20    3.30    3.24
  23  -5 -20   -0.78    2.83
 -23  -5  20    1.56    2.75
  23   5 -19   52.03    8.87
  23  -5 -19   40.38    6.05
  23   5 -19   31.61    5.49
  23  -5 -18    5.31    5.23
  23   5 -18    5.80    5.38
  23  -5 -18    6.11    3.72
  23   5 -18    8.49    3.69
  23  -5 -17    1.10    4.86
  23   5 -17   -2.31    4.87
  23  -5 -17   -0.69    3.41
  23   5 -17    1.45    3.35
  23  -5 -16   49.18    9.26
  23   5 -16   47.09    8.96
  23  -5 -16   61.22    7.52
  23   5 -16   56.48    7.48
  23  -5 -15   22.78    5.15
  23   5 -15   13.64    5.89
  23  -5 -14   -0.72    3.92
  23   5 -14    5.20    4.05
  23   5 -14   -1.12    4.46
  23  -5 -13   69.56    8.25
  23   5 -13   64.76    8.14
  23   5 -13   64.09    9.89
  23  -5 -12   38.62    6.53
  23   5 -12   40.21    6.93
  23   5 -12   46.37    8.25
  23  -5 -11   40.98    6.91
  23   5 -11   46.09    7.23
  23   5 -11   43.03    8.25
  23   5 -10   15.55    4.83
  23   5 -10   12.17    4.93
  23   5  -9   60.11    8.75
  23   5  -8   40.25    9.16
  23   5  -8   45.85    7.37
  23   5  -7  412.14   29.12
  23  -5  -6    1.06    5.39
  23   5  -6    1.64    4.19
  23  -5  -6   -7.80    5.36
  23   5  -6    1.27    5.05
  23  -5  -5  207.97   17.10
  23   5  -5  213.14   16.07
  23  -5  -5  212.92   16.36
  23   5  -5  200.97   18.56
  23  -5  -4    9.75    5.57
  23   5  -4    3.11    4.37
  23  -5  -4   -4.13    4.85
  23   5  -4    8.21    5.55
  23  -5  -3   59.06    8.68
  23  -5  -3   67.35    9.18
  23   5  -3   42.22    6.88
  23  -5  -3   52.94    7.76
  23   5  -3   49.01    8.95
  23  -5  -2   14.61    5.29
  23  -5  -2   26.57    6.31
  23   5  -2   18.08    4.64
  23  -5  -2   19.37    5.26
  23   5  -2   31.31    6.81
  23  -5  -1    8.78    4.72
  23  -5  -1    7.01    4.45
  23   5  -1    3.82    3.31
  23  -5  -1    0.69    3.59
  23   5  -1    2.89    4.16
  23  -5   0   56.65    8.04
  23  -5   0   61.73    6.89
  23  -5   0   54.21    7.37
  23   5   0   44.04    6.10
  23   5   0   58.00    8.50
  23  -5   1   30.37    6.06
  23  -5   1   66.58    6.88
  23  -5   1   51.56    5.25
  23   5   1   27.01    4.89
  23   5   1   -0.75    1.92
  23  -5   2    5.74    3.86
  23  -5   2   14.72    2.54
  23   5   2    9.71    3.48
  23  -5   3  372.56   15.60
  23  -5   3    3.19    1.73
  23  -5   4    4.65    3.46
  23  -5   5  532.07   27.82
  23  -5   6   57.19    5.94
  23  -5   7  248.97   14.21
  23   7 -22  126.99   11.83
  23   7 -21  209.85   16.66
  23   7 -20   68.87    9.23
  23   7 -19   32.96    7.02
  23   7 -18   27.94    7.24
  23  -7 -17   19.33    5.88
  23   7 -17   11.13    5.38
  23  -7 -16   28.24    6.61
  23   7 -16   26.55    6.57
  23   7 -15    4.10    4.43
  23   7 -14    2.05    4.31
  23   7 -13   76.33   10.20
  23   7 -12   53.53   10.34
  23   7 -12   56.57    8.92
  23   7 -11   49.63    9.22
  23   7 -11   40.57    7.81
  23   7 -10    6.34    5.74
  23   7 -10    4.81    4.16
  23   7  -9   -1.25    5.28
  23   7  -9    1.85    4.09
  23  -7  -8   77.30    9.66
  23   7  -8   87.58   12.20
  23   7  -8  105.71   10.80
  23  -7  -7    0.83    4.00
  23   7  -7    1.20    4.50
  23   7  -7    2.43    3.41
  23  -7  -6   17.43    5.19
  23   7  -6   25.67    6.85
  23  -7  -5   15.68    5.17
  23   7  -5    5.61    5.43
  23  -7  -4  116.58   10.84
  23   7  -4  144.14   14.01
  23  -7  -3   45.31    6.49
  23   7  -3   45.25    8.11
  23  -7  -2  315.21   19.62
  23   7  -2  432.72   24.98
  23  -7  -1   46.77    5.56
  23   7  -1   81.90    9.58
  23  -7   0    0.30    0.66
  23   7   0  243.01   13.72
  23   7   1   98.21    9.50
  23   7   2    1.42    1.65
  23   9 -18   99.27    9.62
  23   9 -18   89.70    8.68
  23   9 -17   37.77    6.56
  23   9 -17   26.30    5.16
  23   9 -16  242.59   17.18
  23   9 -16  223.70   15.85
  23   9 -15   15.65    5.27
  23   9 -15   18.62    4.72
  23   9 -14  324.33   20.30
  23   9 -14  239.64   17.43
  23   9 -13   11.19    4.80
  23   9 -13   13.88    4.48
  23  -9 -12  191.66   12.99
  23   9 -12  193.25   14.33
  23  -9 -11    3.12    2.98
  23   9 -11    5.32    3.28
  23  -9 -10  108.06    8.95
  23   9 -10  106.85    9.86
  23  -9  -9   55.07    6.26
  23   9  -9   58.56    6.78
  23  -9  -8  223.35   13.28
  23   9  -8  255.17   17.12
  23  -9  -7   18.93    3.44
  23   9  -7   13.74    5.00
  23  -9  -6  131.46    9.25
  23   9  -6  174.41   13.42
  23   9  -5  144.92   12.32
  23   9  -4   81.37    8.72
  23   9  -3   25.65    5.02
  23   9  -2    1.05    2.64
  24   0 -29   -0.44    2.32
  24   0 -28   35.86    5.38
 -24   0  27   -0.42    2.12
  24   0 -27   -2.59    3.65
  24   0 -26  230.06   16.03
 -24   0  26  207.05   13.48
  24   0 -25    6.34    3.75
 -24   0  25   -1.56    3.10
  24   0 -24   11.87    4.73
  24   0 -23   -0.89    4.21
  24   0 -22  250.38   18.64
  24   0 -21   -1.90    4.39
  24   0 -20   59.15    9.18
  24   0 -19   -1.98    4.78
  24   0 -18  107.65   11.97
  24   0 -17    5.73    4.88
  24   0 -17    2.04    4.18
  24   0 -16  112.80   12.37
  24   0 -16   90.56   11.47
  24   0 -15   -9.79    5.76
  24   0 -15    4.14    4.79
  24   0 -14   46.02    8.94
  24   0 -14   43.53    8.22
  24   0 -13    3.42    5.05
  24   0 -13    2.06    4.35
  24   0 -12  536.54   32.75
  24   0 -12  498.53   31.39
  24   0 -11   16.08    6.41
  24   0 -11   18.35    5.44
  24   0 -10  263.37   20.65
  24   0 -10  274.83   20.26
  24   0  -9   12.40    6.08
  24   0  -9   11.01    5.04
  24   0  -8 1605.79   80.19
  24   0  -8 1650.97   79.85
  24   0  -7   15.42    6.52
  24   0  -7   21.64    6.06
  24   0  -6  559.60   33.61
  24   0  -5    8.31    5.68
  24   0  -4  534.35   31.96
  24   0  -3   14.23    4.53
  24   0  -2    5.47    5.41
  24   0  -2    6.71    4.39
  24   0  -1   -3.19    5.52
  24   0  -1   -3.32    3.85
  24   0   0   42.63    8.27
  24   0   0   52.71    7.82
  24   0   1   -2.87    4.98
  24   0   1   -5.45    4.12
  24   0   2  298.10   25.11
  24   0   2  305.79   24.48
  24   0   3   15.90    4.93
  24   0   3    4.78    3.56
  24   0   4  577.09   19.66
  24   0   4  629.82   19.59
  24   0   5   11.20    3.66
  24   0   5   -0.34    0.58
  24   0   6 1112.87   52.47
  24   0   7    5.11    2.74
  24   0   8    0.35    1.91
  24   2 -28   35.85    5.49
  24  -2 -28   25.60    4.37
  24   2 -28   36.83    4.88
  24  -2 -27    0.54    2.86
  24   2 -27    3.89    2.98
  24  -2 -26  135.33   11.03
  24   2 -26  120.21   10.88
 -24   2  26  134.82   10.04
 -24  -2  26  139.09    9.95
  24  -2 -25   16.41    4.91
  24   2 -25   12.89    4.33
 -24   2  25   22.63    4.52
 -24  -2  25   19.82    4.27
  24  -2 -24   54.06    7.45
  24   2 -24   53.61    7.77
 -24   2  24   57.86    6.87
 -24  -2  24   52.39    6.50
  24  -2 -23   77.48    9.00
  24   2 -23   74.41    9.07
  24  -2 -22  174.57   14.13
  24   2 -22  172.50   14.54
  24  -2 -21   59.09    7.81
  24   2 -21   48.54    7.75
  24  -2 -20   52.52    7.72
  24  -2 -20   48.18    7.46
  24   2 -20   59.89    8.26
  24  -2 -19   93.68   10.82
  24  -2 -19   92.74   10.21
  24   2 -19   80.04   10.04
  24  -2 -18   88.57   10.88
  24   2 -18  102.23   11.24
  24   2 -18   92.39   11.14
  24  -2 -18   69.21    9.47
  24  -2 -17   29.46    7.32
  24   2 -17   21.46    5.96
  24  -2 -17   22.74    6.16
  24   2 -17   23.17    6.12
  24  -2 -16  162.64   15.03
  24  -2 -16  126.06   12.61
  24   2 -16  127.30   13.10
  24   2 -16  132.70   13.18
  24  -2 -15  645.61   35.48
  24  -2 -15  542.35   32.77
  24   2 -15  570.67   33.58
  24   2 -15  523.01   32.29
  24   2 -14  165.13   13.06
  24  -2 -14  147.11   14.98
  24  -2 -14  148.24   14.00
  24   2 -14  176.78   14.94
  24  -2 -13  624.98   35.16
  24  -2 -13  597.35   33.42
  24   2 -13  559.45   32.95
  24   2 -12  188.90   15.20
  24  -2 -12  167.76   15.27
  24   2 -12  209.16   16.61
  24   2 -11  371.91   25.15
  24  -2 -11  465.41   28.66
  24  -2 -11  458.60   27.29
  24   2 -11  388.07   26.12
  24   2 -10   36.53    5.87
  24  -2 -10   24.78    5.83
  24   2 -10   23.12    5.74
  24   2  -9   30.71    5.48
  24  -2  -9   19.29    6.08
  24  -2  -9   21.78    5.42
  24   2  -9   19.18    5.48
  24   2  -8   93.02    9.78
  24  -2  -8   88.03   11.66
  24  -2  -8  110.90   11.48
  24   2  -8  103.99   11.15
  24   2  -7   28.12    4.93
  24  -2  -7    7.83    5.77
  24   2  -7   16.12    5.47
  24   2  -6  109.24   10.87
  24  -2  -6  157.55   14.57
  24   2  -5  147.94   12.59
  24  -2  -5  197.45   16.42
  24   2  -4  187.40   13.93
  24   2  -3  388.72   22.54
  24   2  -3  371.15   25.50
  24  -2  -3  375.86   25.43
  24  -2  -2  329.87   27.01
  24  -2  -2  390.82   28.70
  24  -2  -1  676.18   43.02
  24   2  -1  765.42   45.13
  24  -2  -1  784.79   45.13
  24   2  -1  752.20   42.07
  24  -2   0  255.22   18.22
  24   2   0  330.82   21.30
  24  -2   0  283.18   20.17
  24   2   0  297.46   18.43
  24  -2   1  126.53   11.95
  24  -2   1  107.19    9.34
  24   2   1  102.84   11.10
  24  -2   1  123.69   11.62
  24   2   1   89.20    9.13
  24  -2   2   33.65    6.52
  24   2   2   45.76    6.89
  24  -2   2   32.99    6.08
  24  -2   2   29.67    6.30
  24   2   2   28.05    5.09
  24  -2   3    0.73    3.32
  24  -2   3    9.11    3.60
  24  -2   3   -0.70    3.45
  24   2   3    2.18    2.91
  24  -2   4   66.37    7.97
  24   2   4  160.04   10.41
  24  -2   4  140.91    9.88
  24   2   4   58.35    6.88
  24  -2   4   55.79    7.56
  24  -2   5  138.81   12.15
  24   2   5  390.11   16.07
  24  -2   5  446.48   16.93
  24   2   5  106.66   10.71
  24   2   6    3.79    2.32
  24   2   7    3.99    2.00
  24   4 -27  188.16   13.14
  24   4 -26   22.27    5.12
  24   4 -26   19.52    3.33
  24  -4 -25  283.95   16.50
  24   4 -25  274.09   16.35
  24   4 -25  283.24   19.23
  24   4 -24   -0.86    3.79
  24  -4 -24    4.28    2.83
  24   4 -24    4.81    3.06
  24  -4 -23  284.71   17.86
  24   4 -23  297.69   18.07
  24   4 -23  313.38   21.01
 -24   4  23  258.85   16.58
 -24  -4  23  297.70   17.28
  24  -4 -22    1.28    3.55
  24   4 -22    6.78    4.78
  24  -4 -22   10.23    4.11
  24   4 -22    7.79    4.02
 -24   4  22   15.48    4.03
 -24  -4  22    5.90    3.57
  24  -4 -21  123.33   11.42
  24  -4 -21  101.40    9.85
  24   4 -21  107.01   10.33
  24   4 -21  110.93   12.28
  24   4 -20    4.06    4.71
  24  -4 -20    2.09    3.30
  24   4 -20    7.96    3.83
  24  -4 -19  302.84   20.16
  24   4 -19  323.26   20.85
  24   4 -19  359.40   23.78
  24   4 -18   68.34    9.76
  24  -4 -18   53.59    7.47
  24   4 -18   58.40    7.89
  24   4 -17   14.18    5.55
  24  -4 -17    7.49    3.92
  24   4 -17   14.14    4.70
  24   4 -16    9.99    5.13
  24  -4 -16   18.29    4.96
  24   4 -16    8.78    4.25
  24   4 -15   26.55    6.33
  24  -4 -15   35.58    6.44
  24   4 -15   22.61    5.47
  24  -4 -14   12.52    4.73
  24   4 -14    7.67    4.45
  24   4 -14    4.88    3.86
  24  -4 -13   31.59    6.18
  24   4 -13   34.36    6.54
  24   4 -13   24.20    6.09
  24  -4 -12    4.77    4.28
  24   4 -12    2.47    4.12
  24   4 -12    3.58    3.96
  24  -4 -11   44.82    8.79
  24  -4 -11   48.70    7.71
  24   4 -11   41.98    7.35
  24   4 -11   44.37    7.10
  24  -4 -10    2.22    5.36
  24  -4 -10   11.18    4.56
  24   4 -10    0.82    3.90
  24  -4  -9  282.86   21.02
  24   4  -9  270.31   21.72
  24  -4  -8   51.82    9.23
  24   4  -8   52.16    9.68
  24   4  -7  359.21   25.33
  24   4  -6    7.46    4.94
  24  -4  -5  133.89   13.02
  24   4  -5  110.84   11.59
  24  -4  -5   94.00   11.04
  24   4  -5  109.70   12.13
  24  -4  -4    5.73    5.29
  24   4  -4    4.45    4.47
  24  -4  -4   -4.45    5.29
  24   4  -4    2.82    4.15
  24  -4  -3  102.38   10.30
  24   4  -3   99.75    9.75
  24  -4  -3  112.80   10.38
  24  -4  -2   -0.83    4.00
  24   4  -2   -3.22    4.73
  24  -4  -2    5.67    4.56
  24  -4  -1   45.35    7.57
  24  -4  -1   49.77    7.35
  24   4  -1   50.83    7.33
  24  -4  -1   47.97    7.16
  24  -4   0   15.59    5.30
  24  -4   0   35.93    4.91
  24   4   0   22.49    5.08
  24  -4   0   23.99    5.56
  24  -4   1   39.54    6.55
  24  -4   1   45.62    5.06
  24   4   1   30.97    5.50
  24  -4   1   31.79    5.60
  24  -4   2   39.55    4.14
  24   4   2   34.92    6.44
  24  -4   3  521.69   32.51
  24   4   3  460.15   30.69
  24  -4   3  757.09   32.59
  24  -4   3  831.57   30.75
  24  -4   4    9.38    3.82
  24   6 -25    6.11    2.96
  24   6 -24   20.55    4.54
  24   6 -23   15.75    4.83
  24  -6 -22  116.47    9.82
  24   6 -22  134.57   11.92
  24   6 -21    0.84    3.55
  24   6 -20   25.60    5.94
  24   6 -19   89.43   10.44
  24   6 -18   44.53    7.72
  24   6 -17   -0.94    4.15
  24   6 -16   16.92    5.64
  24   6 -15  262.31   19.41
  24   6 -14   43.60    7.50
  24   6 -13   65.03    8.96
  24   6 -12   48.16    7.92
  24   6 -11  157.67   15.87
  24   6 -11  140.43   13.04
  24   6 -10   27.30    7.47
  24   6 -10   16.37    5.07
  24   6  -9   17.51    6.76
  24   6  -9   -0.76    1.95
  24  -6  -8   51.21    8.25
  24   6  -8   63.67   10.04
  24  -6  -7    9.57    5.19
  24   6  -7    9.90    5.83
  24  -6  -6   98.24   10.54
  24   6  -6  104.40   12.32
  24  -6  -5  130.69   12.09
  24   6  -5  145.09   13.79
  24  -6  -4    6.57    4.06
  24   6  -4    8.45    4.63
  24  -6  -3  115.50   10.40
  24   6  -3  121.88   12.00
  24  -6  -2  126.96   10.61
  24   6  -2  148.60   12.59
  24  -6  -1  561.26   15.88
  24   6  -1   -1.35    2.35
  24  -6   0   95.55    5.60
  24   6   0    0.54    0.75
  24  -6   1    0.21    0.46
  24  -8 -20   39.66    4.84
  24   8 -20   35.97    5.82
  24   8 -20   25.50    4.60
  24   8 -19   19.13    4.93
  24   8 -19   18.13    4.40
  24   8 -18  108.06    9.98
  24   8 -17   10.16    3.83
  24   8 -16   34.58    6.00
  24   8 -15   18.86    4.74
  24   8 -14    7.29    4.90
  24   8 -14    4.87    3.37
  24   8 -13   -2.76    4.44
  24   8 -13    0.68    3.37
  24   8 -12   31.30    6.66
  24   8 -12   19.97    4.70
  24  -8 -11    4.15    3.53
  24   8 -11    0.92    4.05
  24   8 -11    1.27    2.94
  24  -8 -10  208.46   11.08
  24   8 -10  218.57   14.41
  24  -8  -9   28.75    4.84
  24   8  -9   31.99    6.59
  24  -8  -8 1148.95   24.17
  24   8  -8 1137.67   31.09
  24  -8  -7   37.39    5.48
  24   8  -7   58.93    8.26
  24  -8  -6  384.63   21.25
  24   8  -6  416.01   24.61
  24  -8  -5   19.09    3.57
  24   8  -5   21.31    5.33
  24  -8  -4    0.63    1.33
  24   8  -4   31.54    5.38
  24   8  -3    5.92    3.39
  24   8  -2  103.21    8.70
  25  -1 -28    3.37    2.37
  25   1 -28    3.44    2.31
  25  -1 -27   59.26    6.79
  25   1 -27   70.74    7.07
  25   1 -27   50.85    6.23
  25   1 -26   46.94    6.28
  25  -1 -26   49.24    6.51
  25   1 -26   46.46    6.56
 -25   1  26   44.04    5.25
 -25  -1  26   36.78    4.72
  25  -1 -25    5.31    3.14
  25   1 -25    5.53    3.27
 -25   1  25   -0.47    2.54
 -25  -1  25    2.26    2.65
  25   1 -24    8.29    4.06
 -25   1  24   10.34    3.65
 -25  -1  24    6.92    3.15
  25   1 -23    3.21    4.38
  25   1 -22   20.17    5.91
  25   1 -21   20.95    5.60
  25   1 -20  116.69   11.49
  25   1 -20   90.98   10.34
  25   1 -19  112.25   11.47
  25   1 -19   81.56    9.49
  25  -1 -18    6.00    4.75
  25   1 -18    0.77    2.35
  25   1 -18    1.87    4.14
  25  -1 -17   13.07    5.46
  25   1 -17   25.57    6.18
  25  -1 -16  310.29   21.36
  25   1 -16  273.16   20.47
  25  -1 -15   10.31    5.48
  25   1 -15    5.77    5.36
  25   1 -14  647.74   37.31
  25  -1 -14  687.73   38.91
  25   1 -14  701.08   38.52
  25   1 -13   68.26    9.54
  25  -1 -13   58.83    9.64
  25   1 -13   56.78    8.50
  25   1 -12  179.78   16.00
  25   1 -12  180.02   15.65
  25   1 -11   77.19   10.24
  25  -1 -11   75.23   10.72
  25   1 -11  101.92   11.07
  25  -1 -10  111.52   12.29
  25   1 -10   87.51   10.86
  25   1 -10  107.89   11.37
  25   1  -9  103.95   10.74
  25  -1  -9   93.51   11.49
  25   1  -9   81.73    9.83
  25  -1  -8  703.52   38.90
  25   1  -8  765.32   39.04
  25   1  -7  155.40   13.55
  25  -1  -7  191.50   16.03
  25   1  -6  250.59   17.79
  25  -1  -6  251.78   19.06
  25   1  -5   12.82    3.64
  25  -1  -5    0.97    4.59
  25   1  -4   58.77    6.96
  25  -1  -4   50.02    8.17
  25   1  -4   49.92    9.04
  25   1  -3  162.52   12.77
  25   1  -3  203.83   16.18
  25   1  -2  391.70   20.30
  25   1  -2  256.30   21.07
  25   1  -1  784.24   20.11
  25   1  -1   16.69    6.29
  25  -1   0   83.15    7.68
  25   1   0   77.54    9.63
  25  -1   1  470.65   15.22
  25   1   1   37.07    8.29
  25   1   2  167.81   17.05
  25   1   2  214.24   16.99
  25   1   3  116.20    9.69
  25   1   3   95.57    8.57
  25   1   4  750.62   37.11
  25   3 -27   26.55    4.22
  25   3 -26    4.61    2.95
  25  -3 -26    0.83    2.08
  25   3 -26    1.28    2.48
  25  -3 -25  102.68    8.77
  25   3 -25  106.66    8.85
  25   3 -25   87.07    9.14
  25   3 -24   25.74    5.65
  25  -3 -24   29.21    5.12
  25   3 -24   14.45    4.39
 -25   3  24   33.54    4.74
 -25  -3  24   29.36    4.58
  25   3 -23    7.87    4.29
  25  -3 -23   19.45    4.52
  25   3 -23   20.93    4.75
 -25   3  23   17.49    4.10
 -25  -3  23   17.92    4.08
  25   3 -22   66.91    8.53
  25  -3 -22   48.90    6.77
  25   3 -22   53.11    7.27
  25  -3 -21   89.27    9.27
  25  -3 -21  103.23    9.82
  25   3 -21  103.53   10.24
  25   3 -21  112.05   11.26
  25  -3 -20   13.56    4.94
  25   3 -20   13.75    4.99
  25  -3 -20    1.39    3.75
  25   3 -20    7.50    4.17
  25  -3 -19   76.98    9.70
  25  -3 -19   75.43    8.77
  25   3 -19   87.36    9.46
  25   3 -19   80.97    9.93
  25  -3 -18    4.59    4.77
  25   3 -18    2.57    3.69
  25  -3 -18    0.74    3.19
  25   3 -18    0.79    3.67
  25  -3 -17   -2.92    5.14
  25   3 -17   -0.84    3.44
  25  -3 -17    1.51    3.43
  25   3 -17    5.67    3.91
  25  -3 -16  117.16   12.49
  25  -3 -16  110.02   10.86
  25   3 -16  112.50   11.14
  25   3 -16   98.38   10.55
  25  -3 -15  279.34   20.04
  25  -3 -15  257.61   17.82
  25   3 -15  249.56   18.04
  25   3 -15  223.92   17.31
  25  -3 -14  104.87   12.20
  25  -3 -14  100.37   10.54
  25   3 -14  110.34   11.10
  25  -3 -13   52.79    9.04
  25  -3 -13   41.44    7.28
  25   3 -13   47.08    7.43
  25  -3 -12   14.81    6.30
  25  -3 -12    5.74    4.53
  25   3 -12    8.44    4.59
  25  -3 -11    7.39    5.72
  25  -3 -11    2.47    4.41
  25   3 -11    3.38    4.06
  25  -3 -10   12.59    6.17
  25   3 -10   11.99    5.48
  25  -3 -10   12.36    4.90
  25   3 -10   14.36    5.21
  25  -3  -9  243.24   21.59
  25   3  -9  212.13   20.68
  25   3  -8  889.04   25.13
  25  -3  -8  123.03   17.44
  25   3  -7 1074.48   28.49
  25  -3  -7  169.01   21.63
  25   3  -6 1012.72   48.37
  25   3  -5   -4.72    5.15
  25  -3  -5   -1.86    4.74
  25   3  -4   -3.67    4.77
  25  -3  -4    2.71    4.61
  25  -3  -3  292.31   20.05
  25   3  -3  322.62   21.12
  25  -3  -3  307.28   20.67
  25  -3  -2  169.59   13.59
  25   3  -2  200.89   15.14
  25  -3  -2  162.19   13.86
  25   3  -1  960.36   44.47
  25  -3  -1  872.42   43.69
  25  -3   0   44.39    5.47
  25  -3   0   58.18    7.35
  25   3   1  139.90   11.24
  25  -3   1  119.19   10.71
  25   3   2   88.46   10.09
  25  -3   2  103.33   10.01
  25   3   3  189.10   14.09
  25  -3   3  307.73   15.34
  25   5 -25    6.32    2.75
  25   5 -24   18.58    4.34
  25   5 -23   81.75    8.61
  25  -5 -22   36.48    5.04
  25   5 -22   28.48    5.72
  25  -5 -21  420.48   23.08
  25   5 -21  364.48   23.54
  25  -5 -20    8.66    4.62
  25  -5 -20   -0.44    0.73
  25   5 -20    6.42    3.10
  25   5 -20    9.44    4.36
  25   5 -19  567.90   16.74
  25   5 -19  535.74   20.62
  25  -5 -18    5.22    4.82
  25  -5 -18    1.51    1.54
  25   5 -18    9.51    3.46
  25   5 -18    9.79    4.59
  25   5 -17  128.98    9.68
  25   5 -17  126.81   11.40
  25  -5 -16   33.61    5.19
  25   5 -16   19.32    4.46
  25   5 -16   28.47    6.03
  25  -5 -15   31.61    7.14
  25  -5 -15   27.76    5.03
  25   5 -15   34.30    5.34
  25   5 -15   20.83    5.32
  25  -5 -14   53.09    8.09
  25   5 -14   37.19    5.59
  25   5 -14   37.65    6.61
  25  -5 -13   45.39    7.86
  25   5 -13   15.92    4.43
  25  -5 -12    2.89    4.64
  25   5 -12    3.27    4.71
  25   5 -12   -0.72    1.96
  25  -5 -11  105.83   11.63
  25   5 -11  116.09   12.89
  25  -5 -10   10.35    5.39
  25   5 -10   12.60    6.18
  25   5  -9  813.73   41.95
  25  -5  -9  833.39   42.21
  25   5  -9  839.73   45.59
  25   5  -8  183.69   14.15
  25  -5  -8  227.65   15.07
  25   5  -8  182.15   16.33
  25  -5  -7  879.53   45.08
  25   5  -7  872.75   42.99
  25  -5  -7  824.95   42.86
  25   5  -7  843.84   45.61
  25  -5  -6    8.35    4.63
  25   5  -6    4.28    3.54
  25  -5  -6   -2.60    3.86
  25   5  -6    2.63    4.31
  25  -5  -5   16.50    5.31
  25   5  -5   20.66    4.43
  25  -5  -5   18.40    4.49
  25   5  -5   14.54    4.67
  25  -5  -4   18.85    5.15
  25   5  -4   17.81    4.06
  25  -5  -4   18.18    4.30
  25   5  -3  195.33   13.26
  25  -5  -3  208.75   13.71
  25  -5  -3  229.99   15.10
  25  -5  -2   24.22    4.65
  25  -5  -2    1.34    2.21
  25  -5  -1  220.70    9.83
  25  -5  -1   -0.38    1.27
  25  -5   0   26.83    2.99
  25  -5   0    0.31    0.67
  25  -5   1   14.61    2.29
  25  -7 -20    4.18    2.98
  25   7 -20    3.28    2.59
  25  -7 -19   23.70    4.58
  25   7 -19   15.92    4.19
  25  -7 -18  213.68   13.83
  25   7 -18  187.58   15.00
  25  -7 -17   18.72    4.78
  25   7 -17   23.49    5.09
  25  -7 -16  461.47   25.40
  25   7 -16  467.54   27.69
  25   7 -16  422.53   25.09
  25  -7 -15   91.81    9.01
  25   7 -15   88.86   10.35
  25   7 -15   83.13    8.84
  25  -7 -14  634.21   32.48
  25   7 -14  633.37   34.90
  25   7 -14  564.70   31.75
  25  -7 -13  179.15   11.10
  25   7 -13  214.68   14.40
  25   7 -12  283.65   16.16
  25   7 -12    0.57    1.93
  25   7 -11   15.99    5.56
  25   7 -11    0.53    1.02
  25  -7 -10    4.47    3.60
  25   7 -10   -0.87    3.94
  25  -7  -9   -0.62    3.23
  25   7  -9    2.54    3.92
  25  -7  -8   10.16    3.97
  25   7  -8    7.31    4.17
  25  -7  -7   12.43    3.99
  25   7  -7   25.42    5.75
  25  -7  -6   53.56    6.28
  25   7  -6   53.79    7.38
  25  -7  -5    6.01    3.11
  25   7  -5   11.08    3.84
  25  -7  -4  188.23   11.94
  25   7  -4  200.64   13.74
  25  -7  -3  121.30    6.10
  25   7  -3    0.47    1.39
  26   0 -27    0.44    2.58
  26   0 -26   -0.53    3.04
  26   0 -25    0.60    3.30
 -26   0  25   -0.40    2.23
  26   0 -24  205.85   14.15
 -26   0  24  179.52   12.10
  26   0 -23    7.80    3.88
  26   0 -22 2002.33   92.88
  26   0 -21   13.24    5.34
  26   0 -20 1108.31   55.40
  26   0 -19    4.98    4.09
  26   0 -18  538.18   31.10
  26   0 -17    1.43    3.73
  26   0 -17    1.74    4.02
  26   0 -16  106.79   10.75
  26   0 -16   97.02   10.66
  26   0 -15    6.91    4.86
  26   0 -15    0.89    4.13
  26   0 -14   58.76    8.68
  26   0 -14   50.32    7.90
  26   0 -13    2.79    4.39
  26   0 -13   -2.70    4.76
  26   0 -12   15.87    5.68
  26   0 -12   21.61    5.35
  26   0 -11    2.81    4.52
  26   0 -11    4.49    4.06
  26   0 -10  373.72   24.49
  26   0 -10  398.69   25.02
  26   0  -9   10.92    5.64
  26   0  -8 1334.61   65.58
  26   0  -7   22.00    4.64
  26   0  -6   89.31    9.24
  26   0  -5   12.84    3.28
  26   0  -5   -0.98    5.17
  26   0  -4   10.49    3.20
  26   0  -4    9.48    4.21
  26   0  -3   28.59    4.27
  26   0  -3   -0.91    4.76
  26   0  -2  468.76   25.08
  26   0  -2  463.65   27.85
  26   0  -1    3.18    3.91
  26   0   0    7.24    3.71
  26   0   1    5.18    3.54
  26   0   2  211.71   14.01
  26   0   3  203.51   12.91
  26   2 -27  221.88   12.88
  26  -2 -26  146.41   10.42
  26   2 -26  161.87   10.85
  26  -2 -25  456.55   17.46
  26   2 -25  432.97   17.49
  26  -2 -24   14.30    3.91
  26   2 -24   22.75    4.61
 -26   2  24   20.42    3.82
 -26  -2  24   22.72    3.85
  26  -2 -23   34.39    5.42
  26   2 -23   41.45    5.98
 -26   2  23   37.29    4.92
 -26  -2  23   36.85    4.83
  26   2 -22    0.63    2.03
  26  -2 -22   -1.26    2.97
  26   2 -22    0.68    3.29
  26   2 -21   -0.65    1.77
  26  -2 -21    2.63    3.30
  26  -2 -20  133.28    9.94
  26   2 -20  160.36   11.37
  26  -2 -19    8.38    4.16
  26   2 -19   -0.64    1.24
  26  -2 -19    0.71    3.35
  26   2 -19    0.77    3.42
  26  -2 -18   22.00    5.80
  26  -2 -18   23.37    5.27
  26   2 -18   22.14    5.43
  26  -2 -17  129.51   12.23
  26  -2 -17  110.42   10.70
  26   2 -17  119.21   11.60
  26  -2 -16  320.39   21.88
  26  -2 -16  315.72   20.92
  26   2 -16  359.90   22.29
  26  -2 -15  661.86   35.97
  26  -2 -15  614.19   34.48
  26   2 -15  614.28   34.80
  26  -2 -14  999.30   46.03
  26  -2 -14  858.53   43.45
  26   2 -14 1003.49   45.12
  26  -2 -13  262.92   18.37
  26  -2 -13  258.65   17.38
  26   2 -13  230.02   16.89
  26   2 -12  298.41   19.52
  26  -2 -12  396.73   24.13
  26  -2 -12  334.40   22.01
  26   2 -12  378.90   22.92
  26   2 -11   61.69    6.72
  26  -2 -11   63.99    9.36
  26   2 -11   65.85    8.43
  26  -2 -11   60.78    8.09
  26  -2 -10   -1.93    4.77
  26  -2 -10    5.75    3.83
  26   2 -10    9.13    4.41
  26   2  -9  230.83   15.73
  26  -2  -9  261.86   18.77
  26   2  -8  148.05   10.06
  26  -2  -8   48.54    8.89
  26   2  -7  299.05   14.59
  26  -2  -7   90.82   12.25
  26  -2  -6    6.07    4.59
  26   2  -6   10.24    5.45
  26  -2  -5    8.22    4.89
  26   2  -5    9.99    5.66
  26  -2  -5    9.06    5.44
  26   2  -4  844.97   50.35
  26  -2  -4  774.33   49.75
  26   2  -3  203.77   16.34
  26  -2  -3  251.51   17.35
  26   2  -2  648.64   31.39
  26  -2  -2  557.31   30.23
  26  -2  -1  238.45   15.52
  26   2  -1  293.68   18.28
  26  -2  -1  291.99   18.16
  26  -2   0  462.13   22.02
  26   2   0  417.68   23.88
  26   2   1   24.95    5.44
  26  -2   1   34.26    5.83
  26   2   2  111.89    8.92
  26  -2   2  118.35    8.90
  26   2   3  263.25   16.00
  26  -2   3  320.99   16.54
  26   4 -24    2.39    2.44
  26   4 -23   89.61    6.30
  26   4 -23   74.37    6.89
  26  -4 -22    7.33    2.96
  26   4 -22    8.41    2.98
  26   4 -22   10.06    3.97
  26  -4 -21  678.72   33.20
  26  -4 -21  634.97   32.60
  26   4 -21  688.38   33.05
  26   4 -21  608.83   33.82
  26  -4 -20    6.32    4.05
  26  -4 -20    3.57    2.88
  26   4 -20    7.95    3.43
  26   4 -20   -1.30    3.07
  26  -4 -19  425.91   23.32
  26  -4 -19  392.77   21.36
  26   4 -19  388.09   21.49
  26  -4 -18    3.97    4.40
  26  -4 -18   -1.12    2.69
  26   4 -18    1.76    2.83
  26   4 -18    0.66    2.30
  26  -4 -17    2.53    4.68
  26  -4 -17   -0.58    2.89
  26   4 -17    1.82    2.87
  26   4 -17    0.65    1.78
  26  -4 -16    7.04    4.81
  26  -4 -16    4.73    3.38
  26   4 -16    3.11    3.18
  26   4 -16    1.27    1.50
  26  -4 -15   52.68    6.63
  26   4 -15   42.57    6.42
  26  -4 -14   12.83    5.53
  26  -4 -14    4.93    3.59
  26   4 -14    9.04    4.00
  26  -4 -13   83.84   10.24
  26   4 -13   79.64    8.55
  26   4 -13   87.84   10.53
  26  -4 -12   -0.92    4.70
  26   4 -12   -1.82    4.31
  26  -4 -11  433.88   25.95
  26   4 -11  375.27   25.11
  26  -4 -10    5.42    4.94
  26   4 -10    7.58    4.54
  26  -4  -9 1099.00   30.30
  26   4  -9   -1.58    2.16
  26  -4  -8    7.51    4.64
  26   4  -8   -0.73    1.87
  26   4  -7 1427.34   67.08
  26  -4  -7 1377.15   66.90
  26   4  -6   10.49    4.64
  26  -4  -6    5.66    4.49
  26  -4  -5  193.86   14.60
  26   4  -5  198.85   14.24
  26  -4  -5  188.83   14.09
  26  -4  -4   36.85    6.21
  26   4  -4   51.19    6.51
  26  -4  -4   43.88    6.21
  26  -4  -3   21.59    3.78
  26   4  -3   13.49    4.02
  26  -4  -3   16.06    4.13
  26   4  -2   -1.00    2.82
  26  -4  -2   -1.03    2.76
  26  -4  -1   15.53    2.55
  26   4  -1    8.86    3.49
  26  -4   0  168.92    9.48
  26  -4   0  134.10    7.38
  26  -4   1  496.30   23.15
  26  -6 -20  172.61   11.18
  26   6 -20  126.70   10.16
  26  -6 -19    1.66    3.16
  26   6 -19    2.56    2.42
  26  -6 -18    3.67    3.59
  26   6 -18    1.58    2.50
  26  -6 -17  111.89    9.01
  26   6 -17  113.42   10.30
  26  -6 -16  156.78   10.52
  26   6 -16  122.49   10.48
  26  -6 -15  809.23   22.97
  26   6 -15  832.56   25.79
  26  -6 -14  394.77   22.57
  26   6 -14  341.06   23.04
  26  -6 -13  255.08   16.87
  26   6 -13  237.81   17.71
  26  -6 -12  112.65   10.25
  26   6 -12   95.09   10.60
  26   6 -11   88.87   10.11
  26   6 -10   -3.07    3.63
  26   6  -9  274.69   18.63
  26  -6  -8    5.64    3.69
  26   6  -8    6.18    3.93
  26  -6  -7   52.02    6.25
  26   6  -7   -1.26    2.20
  26  -6  -6    2.17    3.06
  26   6  -6   -0.56    1.52
  26  -6  -5   50.31    5.43
  26   6  -5    0.46    1.00
  26  -6  -4  228.11   13.58
  26  -6  -3  189.40   10.96
  26  -6  -2  169.16    9.37
  26  -8 -15    6.32    2.46
  26   8 -13    5.92    2.91
  26  -8 -12   52.38    5.14
  26   8 -12   50.75    5.84
  26  -8 -11    4.73    2.25
  26  -8 -10  114.46    7.88
  27  -1 -26  179.50   11.83
  27   1 -26  209.96   12.29
  27  -1 -25    7.79    3.09
  27   1 -25   10.47    3.30
  27  -1 -24   13.93    3.87
  27   1 -24   12.98    3.73
  27  -1 -23   -0.56    2.82
  27   1 -23   -0.60    2.93
  27  -1 -22  411.41   24.24
  27   1 -22  470.54   25.29
  27   1 -21   96.33    9.56
  27   1 -20  731.01   38.26
  27   1 -19   27.64    5.78
  27  -1 -18   48.89    6.59
  27   1 -18   57.59    7.69
  27  -1 -17    3.35    3.61
  27   1 -17    5.34    3.97
  27  -1 -16  102.64   10.37
  27   1 -16  113.97   10.98
  27   1 -15   74.66    6.88
  27  -1 -15   74.71    9.05
  27   1 -15   71.36    8.76
  27   1 -14  210.43   13.87
  27  -1 -14  185.69   15.15
  27   1 -14  214.94   15.96
  27   1 -13  172.93   13.26
  27  -1 -13  205.87   15.63
  27   1 -12   37.24    4.97
  27  -1 -12   22.55    5.87
  27   1 -12   19.05    4.92
  27   1 -11   37.81    5.15
  27  -1 -11   32.32    6.55
  27   1 -11   26.90    5.73
  27   1 -10  267.50   17.84
  27  -1 -10  324.14   20.21
  27   1  -9   19.58    3.62
  27  -1  -9   27.23    6.20
  27   1  -8  370.41   22.22
  27  -1  -8  446.11   24.79
  27   1  -7  103.18    8.73
  27  -1  -7  102.86    9.54
  27  -1  -6   69.81    8.01
  27   1  -6   60.23    9.11
  27  -1  -5   58.24    7.55
  27   1  -5   67.31    9.52
  27  -1  -4   42.05    6.17
  27   1  -4   47.37    8.07
  27   1  -3  830.17   19.31
  27   1  -3   65.06   11.05
  27   1  -2  185.76   13.73
  27  -1  -1  723.13   15.42
  27   1  -1   10.34    4.57
  27   1   0   69.84    7.19
  27   1   1   66.16    6.06
  27   1   2  200.92   12.11
  27  -3 -24    1.35    1.69
  27   3 -24   -0.36    1.78
  27  -3 -23  157.03   10.48
  27   3 -23  154.67   10.59
  27  -3 -22   99.65    8.18
  27   3 -22  100.19    8.47
  27  -3 -21  216.53   14.17
  27   3 -21  242.65   14.85
  27  -3 -20    4.89    3.03
  27  -3 -20    8.17    3.17
  27   3 -20    8.25    3.45
  27  -3 -19   14.86    4.26
  27  -3 -19   14.97    3.94
  27   3 -19   11.55    3.87
  27  -3 -18    8.79    4.31
  27  -3 -18   12.78    3.67
  27   3 -18   13.21    4.00
  27  -3 -17  379.32   22.53
  27  -3 -17  346.69   20.79
  27   3 -17  365.32   21.49
  27  -3 -16  183.35   14.44
  27  -3 -16  166.95   12.70
  27   3 -16  194.68   13.59
  27  -3 -15  899.90   26.23
  27   3 -15  885.91   23.66
  27  -3 -14   38.11    7.02
  27  -3 -14   27.92    5.19
  27   3 -14   43.87    6.03
  27  -3 -13  346.20   22.06
  27   3 -13  330.42   20.57
  27  -3 -12   26.81    6.26
  27  -3 -11  100.52   10.76
  27  -3 -10   40.23    6.98
  27  -3  -9   68.93    8.73
  27  -3  -8  119.41   11.14
  27   3  -8  123.31   11.25
  27  -3  -8  115.15   10.95
  27  -3  -7    5.14    4.07
  27   3  -7    1.47    3.81
  27  -3  -7   -2.94    4.20
  27   3  -6    9.15    4.14
  27  -3  -6    1.42    3.99
  27   3  -5   10.64    4.30
  27  -3  -5   16.10    4.66
  27  -3  -4   18.04    3.28
  27   3  -4   11.12    4.05
  27  -3  -4   13.76    4.36
  27   3  -3  251.78   15.70
  27  -3  -3  284.39   16.23
  27  -3  -2  155.27   10.41
  27  -3  -2  157.03   11.53
  27   3  -1  151.15   11.77
  27  -3  -1  144.20   11.77
  27   3   0   67.35    7.18
  27  -3   0  108.65    7.51
  27  -5 -20   84.17    7.25
  27  -5 -19  329.24   19.11
  27  -5 -18  104.47    9.37
  27   5 -18   87.15    9.07
  27  -5 -17   27.29    5.35
  27   5 -17   18.49    4.77
  27  -5 -16   14.67    4.62
  27   5 -16    9.74    4.17
  27  -5 -15  445.53   25.23
  27   5 -15  427.37   25.35
  27  -5 -14   -0.89    1.13
  27   5 -14    2.77    3.06
  27  -5 -13  158.61   10.77
  27   5 -13  109.87    9.24
  27  -5 -12   -1.39    3.97
  27  -5 -12   -0.45    1.24
  27   5 -12    0.65    2.28
  27  -5 -11    0.45    1.30
  27   5 -11   -1.24    2.07
  27  -5 -10   -0.44    1.20
  27   5 -10   -0.57    1.11
  27  -5  -9   -0.42    1.07
  27  -5  -8    0.39    0.93
  27  -5  -7  229.59   11.43
  27  -5  -7    0.36    0.69
  27  -5  -6    4.21    3.21
  27  -5  -6   -0.63    0.75
  27  -5  -5   12.47    2.76
  27  -5  -4   18.20    2.73
  27  -5  -3   26.68    2.95
  27  -5  -2  147.09    8.14
  27  -7 -16  130.57    9.00
  27  -7 -15  149.30    9.94
  27  -7 -14  392.01   20.60
  27  -7 -11    4.91    2.45
  27  -7 -10   46.21    4.88
  27  -7  -9    1.64    1.93
  27  -7  -8   74.81    5.83
  28   0 -25   -0.37    2.00
  28   0 -24  149.80   10.54
  28   0 -23    3.93    3.26
  28   0 -22  836.56   41.10
  28   0 -21    5.68    3.65
  28   0 -20  468.82   25.91
  28   0 -19    3.11    3.24
  28   0 -18  130.13   11.03
  28   0 -17    5.30    3.68
  28   0 -16  164.92   11.20
  28   0 -16  199.90   13.88
  28   0 -15   10.37    2.31
  28   0 -15    1.38    3.66
  28   0 -14   16.18    2.92
  28   0 -14   -1.40    3.94
  28   0 -13   15.18    3.00
  28   0 -13   -0.70    3.55
  28   0 -12   42.46    5.37
  28   0 -11   21.09    3.55
  28   0 -10  508.20   27.22
  28   0  -9   18.87    3.49
  28   0  -8  442.89   26.30
  28   0  -8  669.15   31.29
  28   0  -7   31.64    4.01
  28   0  -7    3.10    4.43
  28   0  -6  242.06   14.37
  28   0  -6  235.71   16.66
  28   0  -5  347.16   11.60
  28   0  -5   -0.70    3.92
  28   0  -4  754.46   21.72
  28   0  -4  171.20   18.18
  28   0  -3    1.79    3.20
  28   0  -2   14.92    4.00
  28   0  -1    7.40    3.14
  28   0   0  374.90   19.69
  28   0   1  200.23   11.72
  28  -2 -24   70.07    5.95
  28   2 -24   78.79    6.33
  28  -2 -23  122.55    8.88
  28   2 -23  127.10    9.16
  28  -2 -22    1.28    2.38
  28   2 -22    6.94    3.16
  28  -2 -21   57.25    6.37
  28   2 -21   73.50    7.11
  28  -2 -20    1.47    2.32
  28   2 -20   -1.07    2.93
  28  -2 -19    9.76    3.41
  28   2 -19    5.07    2.94
  28  -2 -18  144.29   11.01
  28  -2 -18  158.44   11.51
  28   2 -18  175.47   12.27
  28  -2 -17  167.05   12.30
  28  -2 -17  189.07   12.58
  28   2 -17  149.39   12.07
  28  -2 -16  386.26   22.62
  28  -2 -16  376.40   22.08
  28   2 -16  420.00   23.08
  28  -2 -15  314.01   19.35
  28  -2 -15  324.03   18.87
  28   2 -15  285.00   18.64
  28  -2 -14  454.44   26.71
  28   2 -14  506.10   26.99
  28  -2 -13  137.66   11.64
  28   2 -12  665.60   15.01
  28  -2 -12   23.33    6.94
  28   2 -11  784.47   17.96
  28  -2 -11   67.02   11.33
  28   2 -10  743.79   16.00
  28  -2 -10    5.44    4.30
  28  -2  -9    1.31    3.34
  28   2  -9   -2.90    4.14
  28  -2  -9    5.09    3.91
  28   2  -8    9.22    3.66
  28  -2  -8    4.99    3.74
  28  -2  -7  117.94    9.36
  28   2  -7  109.58   10.18
  28  -2  -7  105.67   10.02
  28   2  -6    3.25    3.57
  28  -2  -6    5.28    3.94
  28   2  -5   73.00    7.96
  28  -2  -5   96.51    8.85
  28   2  -4   73.02    7.35
  28  -2  -4   48.40    6.42
  28   2  -3  204.09   15.14
  28  -2  -3  231.15   15.63
  28   2  -2   26.55    4.52
  28  -2  -2   15.96    3.95
  28   2  -1  170.28   10.63
  28  -2  -1  171.97   10.90
  28   2   0  167.61   10.90
  28  -2   0  201.67   11.27
  28  -4 -19  363.14   19.68
  28  -4 -18    1.51    2.79
  28  -4 -17   44.89    6.11
  28  -4 -16    6.01    3.77
  28  -4 -15    2.51    3.53
  28  -4 -14   33.40    5.89
  28  -4 -13    1.94    3.59
  28   4 -13    0.50    3.54
  28  -4 -12    8.36    3.28
  28   4 -12   -1.50    3.38
  28  -4 -12   -3.54    4.06
  28  -4 -11  324.90   19.47
  28   4 -11  328.89   18.43
  28  -4 -11  297.71   18.12
  28  -4 -10    7.39    3.76
  28   4 -10    3.40    3.29
  28  -4 -10    2.47    3.41
  28  -4  -9  166.01   12.18
  28   4  -9  164.38   11.22
  28  -4  -9  152.56   11.13
  28   4  -8   -1.75    2.81
  28  -4  -8   -2.73    3.07
  28   4  -7  224.46   13.47
  28  -4  -7  227.32   13.73
  28   4  -6   -0.36    2.26
  28  -4  -6    1.14    2.24
  28   4  -5    3.40    2.00
  28  -4  -5    2.63    2.12
  28  -4  -4   23.26    2.68
  28  -4  -4    7.87    2.47
  28  -4  -3  141.51    8.15
  28  -6 -17   85.21    6.80
  28  -6 -16  169.42   10.78
  28  -6 -15  246.06   14.32
  28  -6 -14  184.66   11.71
  28  -6 -13   67.57    6.24
  28  -6 -12    9.24    2.88
  28  -6  -9   53.55    5.13
  28  -6  -8    8.04    1.56
  28  -6  -7   34.98    3.22
  29  -1 -23    9.77    2.59
  29   1 -23   16.66    3.20
  29  -1 -22  153.36   10.52
  29   1 -22  185.06   11.33
  29  -1 -21   68.42    6.41
  29   1 -21   62.05    6.33
  29  -1 -20   28.31    4.46
  29   1 -20   35.94    4.90
  29  -1 -19    0.95    2.55
  29   1 -19    1.01    2.49
  29  -1 -18   40.65    5.42
  29   1 -18   39.05    5.58
  29   1 -17   16.34    4.13
  29  -1 -16  128.33    8.97
  29   1 -16  149.66   10.97
  29  -1 -15   45.37    4.70
  29   1 -14  543.21   13.05
  29  -1 -14   63.16    8.35
  29   1 -13  622.66   12.78
  29  -1 -13   15.10    3.34
  29   1 -12  563.19   12.60
  29  -1 -12   18.36    3.68
  29   1 -11  605.43   13.74
  29  -1 -11   34.80    5.42
  29  -1 -10   49.08    5.94
  29   1 -10   38.43    6.97
  29  -1  -9   14.74    2.77
  29   1  -9    1.94    3.45
  29  -1  -8   27.17    3.49
  29   1  -8   16.87    4.50
  29  -1  -7  107.19    7.04
  29   1  -7   50.33    6.97
  29  -1  -6  216.70    8.53
  29   1  -6    2.77    3.17
  29  -1  -5  518.77   11.86
  29   1  -5    0.51    2.78
  29   1  -4    3.62    2.80
  29   1  -3   25.05    3.94
  29   1  -2   47.51    4.99
  29   1  -1  104.35    7.60
  29  -3 -18    6.09    2.44
  29  -3 -17   49.92    5.47
  29  -3 -16   77.94    7.30
  29  -3 -15   41.55    5.83
  29  -3 -14    7.91    3.47
  29  -3 -13    2.12    3.16
  29   3 -13   -4.54    3.68
  29  -3 -13   -3.95    3.53
  29  -3 -12   47.83    5.98
  29   3 -12   37.83    5.43
  29  -3 -12   41.18    5.60
  29  -3 -11    2.07    2.59
  29   3 -11    3.49    3.16
  29  -3 -11    1.97    2.98
  29   3 -10   -1.95    3.45
  29  -3 -10   -0.97    3.37
  29   3  -9   21.84    4.13
  29  -3  -9   20.49    4.09
  29   3  -8    8.30    2.89
  29  -3  -8   11.90    3.21
  29   3  -7    2.00    2.24
  29  -3  -7    5.33    2.67
  29   3  -6    4.29    2.16
  29  -3  -6    1.85    1.92
  29   3  -5   16.24    2.98
  29  -3  -5   16.17    3.04
  29  -3  -4  382.99    8.89
  29  -3  -4    7.02    4.13
  29  -5 -16   33.47    4.04
  29  -5 -15   22.59    3.61
  29  -5 -14   -1.87    2.37
  29  -5 -13  110.44    8.09
  29  -5 -12   31.37    4.15
  29  -5 -11   84.00    6.73
  29  -5  -8   16.08    2.11
  30   0 -14  575.89   26.56
  30   0 -13  490.15   23.16
  30   0 -12  492.96   12.07
  30   0 -12   37.61    7.48
  30   0 -11  486.61   10.84
  30   0 -11    4.92    3.80
  30   0 -10  656.57   19.41
  30   0 -10  169.75   17.85
  30   0  -9  546.25   11.24
  30   0  -9   -3.58    3.25
  30   0  -8   -3.38    2.87
  30   0  -7   -3.57    2.79
  30   0  -6  112.93    8.36
  30   0  -5    6.33    2.53
  30   0  -4  258.64   13.90
  30  -2 -16   -4.06    2.55
  30  -2 -15   17.82    2.45
  30  -2 -14   18.09    2.44
  30   2 -14   13.46    3.49
  30  -2 -13   51.57    4.65
  30  -2 -13   54.88    5.85
  30   2 -13   48.96    5.81
  30  -2 -12   22.48    2.88
  30   2 -12   18.51    4.07
  30  -2 -12   22.04    4.17
  30  -2 -11  101.05    7.38
  30  -2 -11  108.18    8.51
  30   2 -10  294.12   15.67
  30  -2 -10  297.31   15.65
  30  -2  -9  119.95    7.68
  30   2  -9  109.98    8.67
  30  -2  -9  135.00    9.12
  30   2  -8  131.95    9.39
  30  -2  -8  110.32    8.95
  30  -2  -7   43.35    5.10
  30   2  -7   36.19    4.87
  30  -2  -6   35.78    4.46
  30   2  -6   33.14    4.36
  30  -4 -14   18.94    2.48
  30  -4 -13   57.10    4.65
  30  -4 -12   11.32    1.83
  30  -4 -11   11.79    1.84
  30  -4 -10    8.03    1.45
  30  -4  -9   11.21    1.56
  31  -1 -17   47.74    4.77
  31   1 -16  165.61   10.52
  31   1 -15    0.74    2.45
  31   1 -14  165.66   10.61
  31   1 -13    1.88    2.48
  31   1 -12   -1.10    2.61
  31   1 -11   55.93    5.33
  31   1 -10   66.92    5.76
   0   0   0    0.00    0.00


TITL IC-235A-Dy in C2/c
REM C2/c (#15 in standard setting)
CELL 1.54184  24.947970  11.803698  26.344881  90.0000 113.3389  90.0000
ZERR   31.00   0.000285   0.000117   0.000304   0.0000   0.0013   0.0000
LATT  7
SYMM -x, y,-z+1/2
SFAC C H N O
UNIT 341.00 310.00 31.00 31.00
TREF
HKLF 4
END
_computing_structure_solution     'SHELXT 2018/2 (Sheldrick, 2018)'
;
_shelx_hkl_checksum                44688
_shelx_fab_file
;
-31 1 10 40.8107 -6.6935
-31 1 11 -77.1283 1.0904
-31 1 12 -5.0698 -0.3443
-31 1 13 -69.8124 -2.1672
-31 1 14 -71.4932 -4.5802
-31 1 15 -15.7817 -1.0968
-31 1 16 -42.2159 -11.0339
-31 1 17 5.9294 3.6549
-30 0 4 45.9709 1.1257
-30 0 6 -7.1985 11.9306
-30 0 8 -83.1847 14.2095
-30 0 10 -2.8644 13.4558
-30 0 12 133.0543 11.3694
-30 0 14 100.3378 8.9142
-30 2 6 12.5460 2.3997
-30 2 7 4.0304 1.4436
-30 2 8 -28.5997 -0.4997
-30 2 9 55.9878 -3.7630
-30 2 10 -30.6060 -10.5402
-30 2 11 49.1247 0.8465
-30 2 12 10.7146 -9.0389
-30 2 13 -14.0188 1.6422
-30 2 14 10.0220 -0.0186
-30 2 15 -30.2578 -4.3702
-30 2 16 -8.1442 0.0108
-30 4 9 60.2125 1.9302
-30 4 10 8.1193 0.8626
-30 4 11 44.1563 4.2216
-30 4 12 -0.4992 1.2659
-30 4 13 -1.6234 2.7079
-30 4 14 -14.7766 1.6235
-29 1 1 36.7287 -10.6435
-29 1 2 -8.9882 -1.0774
-29 1 3 81.7645 -8.6912
-29 1 4 10.9724 -8.4111
-29 1 5 94.6061 -0.6075
-29 1 6 83.7974 -5.7376
-29 1 7 85.6926 7.2424
-29 1 8 58.1272 1.1732
-29 1 9 114.1264 3.2087
-29 1 10 -68.5016 0.0781
-29 1 11 169.1395 -4.5690
-29 1 12 -85.8928 -6.1590
-29 1 13 155.3262 -3.7991
-29 1 14 12.2986 -4.5049
-29 1 15 60.6374 -3.5734
-29 1 16 41.8669 2.0692
-29 1 17 -10.5413 -9.4457
-29 1 18 -1.2636 2.5763
-29 1 19 -13.7817 -8.8985
-29 1 20 -10.3000 1.9916
-29 1 21 -3.8162 -1.2716
-29 1 22 1.3620 8.1742
-29 1 23 -4.9096 2.3500
-29 3 4 0.4879 3.0621
-29 3 5 4.3736 3.9598
-29 3 6 14.0865 1.4161
-29 3 7 -11.8984 9.5844
-29 3 8 5.4840 6.0414
-29 3 9 -39.2091 2.7330
-29 3 10 -12.4307 8.0867
-29 3 11 -19.4916 -3.0739
-29 3 12 5.9689 5.2505
-29 3 13 11.9195 -0.5949
-29 3 14 36.7592 5.2472
-29 3 15 3.9943 -1.7388
-29 3 16 24.9884 6.8607
-29 3 17 -2.5873 -6.8125
-29 3 18 -8.2264 6.0131
-29 5 8 21.1271 -4.3322
-29 5 11 -7.0668 -0.1604
-29 5 12 -5.0512 -4.1205
-29 5 13 1.9745 2.8205
-29 5 14 -32.7314 -5.7673
-29 5 15 -6.9777 0.8647
-29 5 16 -20.4549 -5.8328
-28 0 2 49.1442 32.9947
-28 0 4 -15.1732 10.9228
-28 0 6 -56.1207 -2.4429
-28 0 8 12.5415 -2.0484
-28 0 10 18.7312 2.6301
-28 0 12 -87.4195 7.0555
-28 0 14 -100.8900 8.6922
-28 0 16 4.3586 7.4580
-28 0 18 46.0043 8.2266
-28 0 20 5.5675 11.7635
-28 0 22 -10.4134 11.2081
-28 0 24 0.9909 3.0348
-28 2 1 -8.1776 6.7095
-28 2 2 -25.2785 6.6205
-28 2 3 13.4890 -3.3144
-28 2 4 -11.4821 7.6724
-28 2 5 15.8903 -12.8662
-28 2 6 -2.9270 -0.9126
-28 2 7 -3.7931 -10.0154
-28 2 8 57.7623 -2.9089
-28 2 9 -62.4205 -2.6387
-28 2 10 73.1321 4.5003
-28 2 11 -99.0635 -4.0289
-28 2 12 -0.3997 4.6293
-28 2 13 -54.3776 -6.0974
-28 2 14 -41.9539 -3.2805
-28 2 15 -1.8732 -0.4213
-28 2 16 -14.0698 -4.3860
-28 2 17 -10.8475 0.7518
-28 2 18 -4.9743 -1.5543
-28 2 19 -22.1940 -5.3162
-28 2 20 -24.2975 -3.7681
-28 2 21 0.2595 -3.7609
-28 2 22 -21.4753 -1.7354
-28 2 23 6.7884 3.0496
-28 2 24 -6.2688 9.5435
-28 4 3 39.3623 -4.4726
-28 4 4 12.2583 -1.8134
-28 4 5 -2.7008 -8.4321
-28 4 6 27.1633 -0.7795
-28 4 7 -28.6962 -5.1516
-28 4 8 18.9297 1.3741
-28 4 9 -40.5383 -3.5361
-28 4 10 -3.8091 1.9052
-28 4 11 -38.1025 -4.7506
-28 4 12 -9.2920 0.9520
-28 4 13 -0.2129 -2.3172
-28 4 14 4.5812 -0.3650
-28 4 15 29.8531 3.8480
-28 4 16 16.7534 -1.5538
-28 4 17 7.1284 9.4876
-28 4 18 17.4937 -2.6712
-28 4 19 -20.1488 16.2739
-28 6 7 20.5826 11.5215
-28 6 8 -46.4196 -3.4074
-28 6 9 -1.1752 5.0770
-28 6 12 16.0551 5.4683
-28 6 13 -3.3699 2.3414
-28 6 14 15.3027 -1.1225
-28 6 15 -2.7692 -6.6107
-28 6 16 -3.5232 -12.4798
-28 6 17 -1.5161 -12.2591
-27 1 1 22.8130 13.1330
-27 1 2 10.9648 2.8249
-27 1 3 -58.3370 13.8663
-27 1 4 24.3938 11.5721
-27 1 5 -108.9036 11.6224
-27 1 6 -20.1248 8.3288
-27 1 7 -102.1466 6.8698
-27 1 8 -39.2964 -0.9907
-27 1 9 -72.8814 6.9387
-27 1 10 57.6839 -3.7011
-27 1 11 -69.6820 10.0257
-27 1 12 115.2872 -0.4193
-27 1 13 -68.3788 6.6091
-27 1 14 36.5286 -1.9411
-27 1 15 -30.6436 0.9801
-27 1 16 -28.4552 -7.2805
-27 1 17 4.1328 1.0135
-27 1 18 -3.4063 -6.7294
-27 1 19 0.6383 0.0186
-27 1 20 15.7286 -4.1283
-27 1 21 -3.8583 -5.2986
-27 1 22 0.0115 -9.0622
-27 1 23 8.0314 -7.6485
-27 1 24 -2.2248 -15.9969
-27 1 25 7.9937 -7.8126
-27 1 26 5.9916 -14.6957
-27 3 1 -50.5535 0.5787
-27 3 2 14.9878 -8.2791
-27 3 3 -14.7201 5.5677
-27 3 4 -51.1613 -4.9509
-27 3 5 -13.5898 0.7815
-27 3 6 -114.4132 -0.4755
-27 3 7 -23.4161 -5.1648
-27 3 8 -122.5083 -2.0969
-27 3 9 6.7169 -1.7747
-27 3 10 -68.8495 -3.4901
-27 3 11 17.5990 3.5170
-27 3 12 -25.2488 -1.0755
-27 3 13 -11.3467 1.2192
-27 3 14 -25.1958 -0.3406
-27 3 15 -10.1065 -0.7756
-27 3 16 -21.5569 0.0651
-27 3 17 10.5584 2.4681
-27 3 18 1.8981 4.2368
-27 3 19 -5.1204 0.3460
-27 3 20 11.1715 5.1528
-27 3 21 -19.9894 -7.1171
-27 3 22 3.2730 0.0250
-27 3 23 -2.2711 -8.6274
-27 3 24 -1.6563 -0.8323
-27 5 2 -33.0043 7.3469
-27 5 3 4.1888 4.0413
-27 5 4 -42.3122 5.1962
-27 5 5 24.3303 -2.1189
-27 5 6 -20.3688 0.9955
-27 5 7 49.8715 3.1201
-27 5 8 -2.5998 1.1999
-27 5 9 57.9616 6.3720
-27 5 10 -9.3249 2.4709
-27 5 11 32.8815 0.4569
-27 5 12 -4.8684 3.0581
-27 5 13 -3.6495 -3.4519
-27 5 14 14.7744 5.0535
-27 5 15 -11.5022 -0.4400
-27 5 16 12.8206 5.1960
-27 5 17 3.2315 1.5992
-27 5 18 -10.0797 1.5747
-27 5 19 9.3003 -0.0956
-27 5 20 -21.4914 -1.2629
-27 7 8 18.2441 0.9615
-27 7 9 -10.7334 -1.0721
-27 7 10 13.4084 -1.5646
-27 7 11 -11.7431 -3.8977
-27 7 14 5.9596 13.3754
-27 7 15 4.0732 3.1235
-27 7 16 -11.8687 2.1425
-26 0 2 -45.0839 -33.2815
-26 0 4 -30.8753 -22.3486
-26 0 6 4.7534 -9.7869
-26 0 8 -53.6992 -4.7579
-26 0 10 -112.9621 -0.9811
-26 0 12 -40.9243 2.1060
-26 0 14 39.5821 4.1041
-26 0 16 10.9890 7.8948
-26 0 18 -25.6247 11.0154
-26 0 20 -2.7783 9.1209
-26 0 22 11.3092 3.8878
-26 0 24 -5.7963 -0.0543
-26 0 26 -16.1967 -0.4873
-26 2 1 -4.7279 -8.8613
-26 2 2 23.7209 -4.0652
-26 2 3 -11.7305 -5.7618
-26 2 4 -1.9301 -4.4872
-26 2 5 34.0273 -1.8766
-26 2 6 34.4531 1.9414
-26 2 7 54.1850 -2.5735
-26 2 8 27.8688 3.0477
-26 2 9 43.8002 -5.9491
-26 2 10 -6.1327 -4.2419
-26 2 11 37.1259 -4.4904
-26 2 12 14.4562 -5.7470
-26 2 13 13.8640 -1.5672
-26 2 14 39.1516 1.0475
-26 2 15 -10.5338 -4.0965
-26 2 16 12.0644 2.1277
-26 2 17 11.5848 -4.7761
-26 2 18 -4.3329 -2.8601
-26 2 19 36.1908 0.9026
-26 2 20 19.0091 -2.5232
-26 2 21 13.1914 2.5374
-26 2 22 27.4322 -0.6691
-26 2 23 -7.0886 -0.0545
-26 2 24 9.2874 -6.2796
-26 2 25 4.1900 3.7125
-26 2 26 -1.4467 -12.8330
-26 2 27 7.0233 9.8492
-26 4 1 48.2339 -1.9256
-26 4 2 -18.9498 -1.2410
-26 4 3 -16.4004 2.5951
-26 4 4 -26.3645 2.3777
-26 4 5 -24.7281 6.4974
-26 4 6 -58.1157 3.8269
-26 4 7 -22.8560 3.9471
-26 4 8 -58.0870 1.6252
-26 4 9 -11.3145 0.9371
-26 4 10 -22.3447 -0.5858
-26 4 11 30.4354 1.1971
-26 4 12 4.9609 -1.3950
-26 4 13 43.1402 1.7716
-26 4 14 6.7074 -2.2798
-26 4 15 7.3649 1.1649
-26 4 16 0.5048 -2.8689
-26 4 17 -5.7028 0.6649
-26 4 18 -2.0391 -0.4194
-26 4 19 10.9532 -3.4585
-26 4 20 -5.5752 3.9221
-26 4 21 4.3801 -12.7263
-26 4 22 -8.9992 3.5275
-26 4 23 -12.4188 -15.8091
-26 4 24 -3.8732 -2.6356
-26 6 2 15.2521 -4.6590
-26 6 3 -8.0636 4.1592
-26 6 4 -0.6208 -3.3388
-26 6 5 -17.6450 -3.4413
-26 6 6 22.7342 1.3748
-26 6 7 -11.3195 -6.6766
-26 6 8 55.7989 4.8350
-26 6 9 -4.2307 -1.3400
-26 6 10 45.1437 2.0283
-26 6 11 -9.8757 0.2683
-26 6 12 10.1196 -4.1455
-26 6 13 -13.5461 -2.6712
-26 6 14 0.1648 -1.9380
-26 6 15 -6.1832 -0.3445
-26 6 16 8.6525 7.7165
-26 6 17 -0.4848 4.2671
-26 6 18 10.4855 8.7130
-26 6 19 -3.3745 2.5339
-26 6 20 8.8540 -1.3537
-26 8 10 -27.2940 -3.3132
-26 8 11 17.3019 -5.9117
-26 8 12 -8.8529 -7.9595
-26 8 13 1.6777 -3.1143
-26 8 15 -5.7527 1.5573
-25 1 1 32.2446 -0.5997
-25 1 2 -18.4362 3.8962
-25 1 3 45.9845 -2.2718
-25 1 4 -43.8135 1.7526
-25 1 5 20.1580 -1.5164
-25 1 6 -30.2525 4.1593
-25 1 7 -2.2338 1.5834
-25 1 8 31.1326 7.6151
-25 1 9 -3.3735 4.2762
-25 1 10 16.8305 5.7257
-25 1 11 15.6961 4.5147
-25 1 12 -41.3223 1.1963
-25 1 13 32.2311 5.8713
-25 1 14 -25.4200 0.7346
-25 1 15 16.5078 8.6859
-25 1 16 16.9402 2.3693
-25 1 17 -8.4019 8.4699
-25 1 18 4.5468 -1.6400
-25 1 19 -5.6056 6.1890
-25 1 20 -14.4594 -8.4897
-25 1 21 1.5336 3.5833
-25 1 22 -0.6528 -7.4446
-25 1 23 -8.9643 -1.2952
-25 1 24 7.8269 0.3216
-25 1 25 -10.8756 -4.0199
-25 1 26 -0.6994 3.8890
-25 1 27 -0.2471 0.0528
-25 1 28 -4.1304 1.1887
-25 3 1 -1.5149 -0.7846
-25 3 2 0.0267 1.2778
-25 3 3 -10.1896 -1.9875
-25 3 4 89.7273 -1.7922
-25 3 5 9.8833 0.3392
-25 3 6 146.3280 -5.2989
-25 3 7 66.2326 2.7498
-25 3 8 135.3408 -3.0945
-25 3 9 52.6033 0.6689
-25 3 10 65.1915 -0.5271
-25 3 11 -7.0077 -1.7520
-25 3 12 2.5539 -1.5129
-25 3 13 -16.2583 0.9331
-25 3 14 -6.7959 -1.8783
-25 3 15 -4.1486 2.3301
-25 3 16 3.5260 -1.7529
-25 3 17 -10.6863 -2.8514
-25 3 18 -0.0845 -5.0922
-25 3 19 1.7881 -4.9409
-25 3 20 -0.9697 -6.6615
-25 3 21 19.0097 0.5772
-25 3 22 7.8884 -1.2738
-25 3 23 1.9434 5.2521
-25 3 24 9.3622 3.0911
-25 3 25 -11.6827 8.9633
-25 3 26 3.1291 0.4280
-25 3 27 1.8011 14.3490
-25 5 1 -45.9739 -5.1848
-25 5 2 28.0916 -1.6782
-25 5 3 -14.1548 -4.0103
-25 5 4 25.7533 -4.3429
-25 5 5 -8.7370 3.0429
-25 5 6 7.1830 -3.8901
-25 5 7 -10.0795 1.0625
-25 5 8 -4.4788 -4.4743
-25 5 9 -18.9763 -2.9690
-25 5 10 14.2556 -3.9352
-25 5 11 -24.7620 -0.0148
-25 5 12 25.6318 -0.3518
-25 5 13 -7.9426 3.8614
-25 5 14 5.8902 2.9936
-25 5 15 9.7517 2.1236
-25 5 16 -10.3272 5.7492
-25 5 17 5.7969 -0.9221
-25 5 18 0.0175 8.0190
-25 5 19 -1.2613 -1.4068
-25 5 20 15.7439 6.8818
-25 5 21 -0.2227 -2.7577
-25 5 22 15.1941 3.3379
-25 5 23 -1.4958 -4.3389
-25 5 24 4.7300 1.5495
-25 5 25 -2.5992 -0.6270
-25 7 3 46.3749 -0.1037
-25 7 4 8.9655 -5.3842
-25 7 5 36.9961 -3.9953
-25 7 6 -14.5002 -7.0790
-25 7 7 10.8334 -6.3212
-25 7 8 -14.8995 -2.2350
-25 7 9 5.4148 -3.0378
-25 7 10 -22.8657 3.8778
-25 7 11 12.9284 1.3022
-25 7 12 -40.2618 -0.2586
-25 7 13 6.9712 -0.0452
-25 7 14 -29.3108 -9.7221
-25 7 15 -2.7778 -4.5221
-25 7 16 0.6654 -6.0665
-25 7 17 -2.7540 -3.3954
-25 7 18 7.9149 8.9157
-25 7 19 -2.0688 1.8042
-25 7 20 -1.9687 15.3474
-24 0 2 15.9307 6.0433
-24 0 4 84.0120 -5.9727
-24 0 6 57.2809 -16.1950
-24 0 8 19.2494 -14.9080
-24 0 10 28.2063 -11.4532
-24 0 12 12.7526 -8.6543
-24 0 14 -19.0098 -3.4098
-24 0 16 -0.5214 1.4411
-24 0 18 25.8659 4.4356
-24 0 20 7.7958 7.5560
-24 0 22 -10.7197 10.2173
-24 0 24 0.5601 10.6875
-24 0 26 11.1181 7.2404
-24 0 28 7.6789 0.1804
-24 2 1 -22.3413 3.3947
-24 2 2 5.2153 4.1626
-24 2 3 28.1124 5.3110
-24 2 4 8.3444 5.3859
-24 2 5 14.8242 4.4590
-24 2 6 -34.8289 2.5584
-24 2 7 -7.3248 2.2264
-24 2 8 -45.3341 1.5578
-24 2 9 11.8291 0.0414
-24 2 10 -1.4187 4.0940
-24 2 11 24.7134 -2.8857
-24 2 12 12.9402 2.7337
-24 2 13 16.6251 -5.6002
-24 2 14 -10.3908 -2.8738
-24 2 15 9.0538 -5.5017
-24 2 16 -11.8539 -3.1865
-24 2 17 -13.0438 -5.8296
-24 2 18 -3.1419 1.9547
-24 2 19 -31.8451 -8.5560
-24 2 20 -15.0742 2.1229
-24 2 21 -10.2352 -6.7967
-24 2 22 -20.5261 -2.0707
-24 2 23 12.6036 -0.6091
-24 2 24 -4.5234 0.2472
-24 2 25 2.2287 1.3796
-24 2 26 6.8729 9.2679
-24 2 27 -4.3554 1.2369
-24 2 28 4.3857 15.0830
-24 4 1 -30.0222 1.7126
-24 4 2 16.4798 2.1391
-24 4 3 16.1999 -0.7274
-24 4 4 45.4302 0.8261
-24 4 5 -14.0337 -2.2574
-24 4 6 85.2525 -0.3869
-24 4 7 -43.0132 -0.0924
-24 4 8 77.0226 1.3723
-24 4 9 -20.2276 1.3246
-24 4 10 24.5903 3.1090
-24 4 11 -11.2039 0.0906
-24 4 12 -8.5469 2.4124
-24 4 13 -22.4520 -1.4962
-24 4 14 -3.5928 0.8045
-24 4 15 -6.0413 -1.9286
-24 4 16 3.3725 0.1273
-24 4 17 9.2770 -2.0459
-24 4 18 -5.9189 -0.4864
-24 4 19 -1.0866 1.2851
-24 4 20 -11.4820 -2.3607
-24 4 21 2.6412 10.1281
-24 4 22 -1.7994 -2.6844
-24 4 23 18.8127 13.3197
-24 4 24 6.5047 0.5213
-24 4 25 13.4029 3.6219
-24 4 26 4.4990 2.9765
-24 4 27 0.8563 -4.9290
-24 6 1 -20.2813 2.7549
-24 6 2 -27.9866 1.5278
-24 6 3 -34.1891 -3.2456
-24 6 4 16.9188 2.4075
-24 6 5 -15.9147 -1.1131
-24 6 6 17.0359 1.7725
-24 6 7 -3.7204 2.5148
-24 6 8 -15.6726 -1.3991
-24 6 9 4.7498 1.5373
-24 6 10 -26.1296 -2.8021
-24 6 11 18.1980 0.9511
-24 6 12 -11.5289 1.7909
-24 6 13 19.8935 3.5442
-24 6 14 -4.7208 4.4147
-24 6 15 6.7689 3.9337
-24 6 16 -5.2406 -1.1617
-24 6 17 -2.9775 0.8651
-24 6 18 -2.7657 -5.5119
-24 6 19 -5.8799 0.6612
-24 6 20 -4.0565 -2.4992
-24 6 21 -8.5790 3.1297
-24 6 22 -5.8745 1.2353
-24 6 23 -6.9304 1.6464
-24 6 24 -2.2262 1.4343
-24 6 25 -0.4412 -1.3339
-24 8 2 35.4885 3.4907
-24 8 3 -10.1540 7.6323
-24 8 4 24.3533 1.2279
-24 8 5 0.6808 5.8365
-24 8 6 -3.1383 -4.1566
-24 8 7 1.2128 1.9834
-24 8 8 -1.4719 -7.4354
-24 8 9 -16.8923 2.2477
-24 8 10 18.0789 -2.1914
-24 8 11 -24.5307 3.3429
-24 8 12 14.2578 5.2017
-24 8 13 -14.6957 3.5821
-24 8 14 -3.0903 -0.2541
-24 8 15 -7.4632 3.0798
-24 8 16 -4.1402 -13.2372
-24 8 17 -3.1216 0.1577
-24 8 18 1.8182 -12.2571
-24 8 19 3.6789 -0.9332
-24 8 20 0.1945 3.2508
-23 1 1 -13.7495 -1.5801
-23 1 2 12.1245 4.8284
-23 1 3 -20.5284 -8.5923
-23 1 4 0.8902 8.7034
-23 1 5 -1.6414 -11.2484
-23 1 6 6.8325 6.9924
-23 1 7 -3.1935 -7.0835
-23 1 8 -23.5803 4.1100
-23 1 9 -25.2442 -0.9569
-23 1 10 -31.5590 6.1818
-23 1 11 -31.1466 2.8909
-23 1 12 6.5977 8.8303
-23 1 13 -14.8969 4.3242
-23 1 14 16.2484 6.6160
-23 1 15 8.1393 4.8498
-23 1 16 -9.9045 1.4242
-23 1 17 15.8069 6.3831
-23 1 18 -13.6624 -1.0352
-23 1 19 -1.4721 8.1541
-23 1 20 -1.2198 0.3290
-23 1 21 -12.4630 7.9184
-23 1 22 -3.4905 -0.6606
-23 1 23 0.8291 5.7065
-23 1 24 -5.1448 -6.3676
-23 1 25 5.8260 0.5790
-23 1 26 4.5369 -9.9915
-23 1 27 -6.7308 -7.2781
-23 1 28 8.6043 -7.9157
-23 1 29 -8.2392 -11.3532
-23 1 30 3.7548 -4.2905
-23 3 1 14.3481 -1.5310
-23 3 2 -4.8236 -5.0314
-23 3 3 4.6530 -1.3866
-23 3 4 -25.0872 -5.1024
-23 3 5 8.5760 -2.6615
-23 3 6 -41.8180 -3.3795
-23 3 7 -39.5198 -2.6054
-23 3 8 -46.1842 -2.4509
-23 3 9 -57.5906 -0.4359
-23 3 10 -36.4738 -1.5241
-23 3 11 -9.9302 1.3791
-23 3 12 -22.1848 -0.9117
-23 3 13 13.6621 0.7210
-23 3 14 -13.3432 -2.6355
-23 3 15 -0.5386 0.8568
-23 3 16 -2.7264 -4.6443
-23 3 17 -1.1466 4.1229
-23 3 18 9.4426 -2.2085
-23 3 19 -3.3649 4.1427
-23 3 20 6.2032 2.8423
-23 3 21 -12.5065 -0.4475
-23 3 22 -7.6463 4.7356
-23 3 23 1.5991 -1.6162
-23 3 24 -10.7094 5.1203
-23 3 25 13.0595 -1.1543
-23 3 26 -5.4731 8.1490
-23 3 27 -2.5342 -4.2897
-23 3 28 -4.7546 11.1426
-23 3 29 -11.6907 -3.4264
-23 5 1 32.5706 2.2376
-23 5 2 3.9302 2.8859
-23 5 3 12.0784 3.8014
-23 5 4 -38.5858 2.9329
-23 5 5 11.7987 -2.2385
-23 5 6 -43.3300 0.6137
-23 5 7 -2.0505 -2.1533
-23 5 8 -16.3298 -0.6712
-23 5 9 -18.1591 1.8681
-23 5 10 -8.3679 -1.1361
-23 5 11 -10.5570 1.2504
-23 5 12 -16.6500 -2.3696
-23 5 13 -4.1967 -2.7737
-23 5 14 -8.9516 -2.4546
-23 5 15 -13.0668 -3.0484
-23 5 16 8.3821 -2.1369
-23 5 17 -13.1231 1.1243
-23 5 18 11.8424 -2.6606
-23 5 19 -2.9479 4.6715
-23 5 20 1.1999 -2.2006
-23 5 21 1.5157 6.9789
-23 5 22 -7.1507 -1.4635
-23 5 23 3.4546 7.6758
-23 5 24 -5.2642 -2.1982
-23 5 25 6.8239 0.8970
-23 5 26 -1.0582 -3.5851
-23 7 1 5.7878 -3.8782
-23 7 2 -40.2628 3.1575
-23 7 3 -13.1287 -3.2716
-23 7 4 -23.1016 0.8041
-23 7 5 -17.1746 1.5392
-23 7 6 5.4667 2.5152
-23 7 7 1.8696 4.2509
-23 7 8 1.5186 4.0627
-23 7 9 9.1473 2.4620
-23 7 10 0.3170 -0.3569
-23 7 11 0.5085 -0.5552
-23 7 12 21.9748 -4.8405
-23 7 13 1.1067 -1.6507
-23 7 14 24.5891 -1.8790
-23 7 15 6.5049 -0.0370
-23 7 16 -0.2284 0.1141
-23 7 17 5.1749 -0.3841
-23 7 18 -12.4741 -5.3870
-23 7 19 6.8184 -5.5556
-23 7 20 -8.9132 -8.8964
-23 7 21 8.4366 -8.2816
-23 7 22 -11.1015 -3.9915
-23 9 2 13.6157 4.1930
-23 9 3 6.1108 -2.8995
-23 9 4 14.7745 0.9180
-23 9 5 -3.4525 -0.4079
-23 9 6 0.0177 3.8623
-23 9 7 -2.6128 -1.7513
-23 9 8 -10.7433 5.5287
-23 9 9 -5.1850 -0.9612
-23 9 10 -6.0210 1.1658
-23 9 11 -13.5848 3.6121
-23 9 12 0.1612 -0.0103
-23 9 13 -7.2067 4.7744
-23 9 14 1.9654 4.5247
-23 9 15 7.6400 3.5876
-23 9 16 6.2797 4.1971
-23 9 17 7.9784 3.4588
-23 9 18 7.5279 -3.4815
-22 0 2 2.0577 -4.2172
-22 0 4 -8.7149 1.1976
-22 0 6 13.2144 3.5411
-22 0 8 40.4815 -4.9711
-22 0 10 15.7534 -12.7554
-22 0 12 -16.5261 -13.5478
-22 0 14 -11.7100 -12.9414
-22 0 16 -1.9091 -11.4590
-22 0 18 -2.0601 -7.2629
-22 0 20 5.7238 -1.6965
-22 0 22 10.6706 4.5023
-22 0 24 0.3517 8.9179
-22 0 26 -8.6550 9.8868
-22 0 28 -8.7289 10.4425
-22 0 30 -9.3335 9.8881
-22 2 1 15.4204 7.4910
-22 2 2 -3.3772 -0.4449
-22 2 3 -58.4108 9.1160
-22 2 4 -45.6011 -0.6447
-22 2 5 -66.5443 7.9820
-22 2 6 -39.0150 2.7430
-22 2 7 -13.4878 5.4310
-22 2 8 -7.0980 3.3774
-22 2 9 8.1746 3.7969
-22 2 10 1.4496 1.5200
-22 2 11 -2.8186 2.5712
-22 2 12 3.9482 2.1560
-22 2 13 -5.8654 0.4453
-22 2 14 14.8027 5.1497
-22 2 15 -2.0470 -2.5517
-22 2 16 11.2644 6.0173
-22 2 17 10.2995 -4.0538
-22 2 18 -0.0328 3.0957
-22 2 19 19.7912 -3.4517
-22 2 20 2.8746 0.0662
-22 2 21 1.0058 -4.9522
-22 2 22 6.4825 -1.0896
-22 2 23 -14.7082 -7.8819
-22 2 24 -1.2026 -4.0477
-22 2 25 2.4009 -6.8888
-22 2 26 -4.1508 -9.7386
-22 2 27 13.0753 -5.8078
-22 2 28 2.6578 -13.2988
-22 2 29 1.8197 -9.5831
-22 2 30 6.0663 -11.5424
-22 4 1 27.2748 -3.0111
-22 4 2 -26.3050 -1.1975
-22 4 3 18.7485 -1.2603
-22 4 4 -73.3014 0.7714
-22 4 5 56.8650 -0.1641
-22 4 6 -126.1298 1.0857
-22 4 7 88.9621 -0.4153
-22 4 8 -113.4689 -0.7732
-22 4 9 47.1976 -0.2338
-22 4 10 -35.0481 -0.7147
-22 4 11 -1.8091 -0.5601
-22 4 12 22.1463 1.7855
-22 4 13 -2.5706 -2.2414
-22 4 14 17.4144 3.0594
-22 4 15 -1.1941 -3.6367
-22 4 16 -2.5766 1.4021
-22 4 17 -11.5090 -1.7832
-22 4 18 1.1790 -0.9782
-22 4 19 -8.2410 0.2040
-22 4 20 9.3780 -0.0468
-22 4 21 -7.8097 -3.8379
-22 4 22 -0.6695 3.2714
-22 4 23 -15.9063 -6.8227
-22 4 24 -13.7701 3.7657
-22 4 25 -11.8213 0.1610
-22 4 26 -13.3333 1.6491
-22 4 27 -7.0239 6.1191
-22 6 1 12.3258 2.3339
-22 6 2 19.2914 2.4241
-22 6 3 16.2307 3.8347
-22 6 4 -8.8790 2.6119
-22 6 5 -1.1523 1.0050
-22 6 6 -7.5271 1.1425
-22 6 7 -4.4290 -3.2466
-22 6 8 16.5403 1.1654
-22 6 9 0.4281 -4.6090
-22 6 10 18.0443 3.4432
-22 6 11 -5.2357 -2.4455
-22 6 12 -2.1678 2.4160
-22 6 13 -6.0202 0.5742
-22 6 14 -11.5891 -0.5473
-22 6 15 5.2549 1.9657
-22 6 16 -10.8135 0.6021
-22 6 17 9.8392 2.2537
-22 6 18 -8.8933 2.4669
-22 6 19 8.2848 0.7401
-22 6 20 1.4336 0.5568
-22 6 21 13.5339 -2.6844
-22 6 22 10.6250 -2.3993
-22 6 23 15.1147 -2.6701
-22 6 24 5.4241 -3.1590
-22 6 25 4.4096 1.2985
-22 6 26 -0.5279 -0.9120
-22 6 27 -2.8301 1.8605
-22 8 1 -17.7885 -2.8374
-22 8 2 -7.7986 -3.6263
-22 8 3 -5.3211 -6.7574
-22 8 4 -12.7472 -0.0868
-22 8 5 -3.3907 -5.4775
-22 8 6 8.8442 1.4694
-22 8 7 -3.0531 -0.3543
-22 8 8 20.0400 3.1056
-22 8 9 10.6999 1.2715
-22 8 10 5.5049 3.9304
-22 8 11 15.4655 0.5051
-22 8 12 -3.9786 0.1531
-22 8 13 3.3340 -0.8973
-22 8 14 -0.5350 -1.5824
-22 8 15 -2.0409 -2.3653
-22 8 16 -2.9466 3.7350
-22 8 17 -0.5476 0.5512
-22 8 18 -4.2096 5.4595
-22 8 19 -5.1139 4.3211
-22 8 20 6.5087 -4.4113
-22 8 23 -2.3081 -3.9605
-22 10 3 17.0499 -1.8256
-22 10 8 -8.7322 -7.4137
-22 10 9 7.2366 -1.0177
-22 10 10 -0.4077 -5.4332
-22 10 11 -0.3189 -1.1754
-22 10 12 4.1679 -8.6194
-22 10 13 -7.0762 1.0345
-22 10 14 -1.4363 -10.6866
-22 10 15 4.6212 3.1110
-22 10 16 -1.5760 -11.9108
-21 1 1 -9.9329 -6.3960
-21 1 2 -2.8691 -5.4402
-21 1 3 43.4100 -6.9098
-21 1 4 5.1572 -7.6731
-21 1 5 31.0888 -7.6163
-21 1 6 -4.9089 -2.7011
-21 1 7 -6.9419 -9.9639
-21 1 8 4.7655 4.3488
-21 1 9 -16.1114 -10.8458
-21 1 10 14.9322 5.4519
-21 1 11 -8.3451 -6.9645
-21 1 12 -3.9825 5.0557
-21 1 13 -5.8199 -1.6203
-21 1 14 -16.5251 6.9199
-21 1 15 -7.3580 1.6466
-21 1 16 0.9722 8.4629
-21 1 17 -1.1982 2.9819
-21 1 18 16.8662 8.4368
-21 1 19 15.8726 3.3212
-21 1 20 14.0945 5.9430
-21 1 21 19.2147 3.3904
-21 1 22 5.4461 1.4043
-21 1 23 -3.1130 3.4742
-21 1 24 -5.5353 -2.1861
-21 1 25 -16.7503 4.0875
-21 1 26 -15.6664 -4.7936
-21 1 27 -7.0112 5.2800
-21 1 28 -12.4909 -6.5798
-21 1 29 -2.0542 4.9637
-21 1 30 0.3307 -4.8513
-21 1 31 -4.8011 2.4101
-21 3 1 -7.0242 -1.0609
-21 3 2 -29.7352 1.3772
-21 3 3 -2.0340 0.3462
-21 3 4 2.0023 1.3041
-21 3 5 -17.1970 2.9590
-21 3 6 24.4908 0.5565
-21 3 7 14.1106 1.2360
-21 3 8 13.9225 -1.2865
-21 3 9 49.9653 -3.3989
-21 3 10 -6.0588 -3.9915
-21 3 11 26.2733 -5.3264
-21 3 12 -7.4172 -4.3261
-21 3 13 -3.4336 -2.3232
-21 3 14 2.7092 -2.2125
-21 3 15 2.0228 1.0350
-21 3 16 1.4728 -0.8631
-21 3 17 8.6315 0.0817
-21 3 18 -6.9545 -2.1113
-21 3 19 11.1309 -1.0679
-21 3 20 -1.8185 -4.6376
-21 3 21 12.6345 0.5485
-21 3 22 10.8475 -5.0407
-21 3 23 -4.4261 0.2744
-21 3 24 10.7894 -3.3554
-21 3 25 -13.2276 0.3491
-21 3 26 2.8921 -2.9067
-21 3 27 7.3404 4.1774
-21 3 28 1.1338 -3.4637
-21 3 29 16.7900 1.9535
-21 3 30 1.6725 -3.4908
-21 5 1 -1.9230 -2.8490
-21 5 2 11.4334 -1.2220
-21 5 3 -7.9494 -2.6514
-21 5 4 42.6911 -0.2561
-21 5 5 -35.4397 2.1164
-21 5 6 38.2481 2.0090
-21 5 7 -34.5039 2.8919
-21 5 8 4.9757 2.0299
-21 5 9 -1.4493 0.3492
-21 5 10 -2.9818 -0.7793
-21 5 11 15.3958 -1.2540
-21 5 12 18.2270 -3.3607
-21 5 13 14.9713 -0.5475
-21 5 14 25.9162 -4.7280
-21 5 15 21.0294 0.2282
-21 5 16 8.7780 -3.4345
-21 5 17 19.8275 -0.2680
-21 5 18 -8.0662 -0.3323
-21 5 19 2.0052 0.7531
-21 5 20 -7.9322 0.7893
-21 5 21 -12.1496 1.8156
-21 5 22 0.7393 0.8333
-21 5 23 -12.2647 -1.1189
-21 5 24 3.2831 1.2683
-21 5 25 -5.2521 -2.1014
-21 5 26 0.1430 0.4390
-21 5 27 0.8799 2.8293
-21 5 28 -1.0137 -0.0232
-21 7 1 -14.9212 3.4400
-21 7 2 21.0359 -4.5714
-21 7 3 7.0830 4.3597
-21 7 4 9.6118 -2.9305
-21 7 5 27.1042 1.6841
-21 7 6 -17.9669 -0.2464
-21 7 7 14.7697 0.7206
-21 7 8 -8.1521 -1.0742
-21 7 9 -4.6100 2.0018
-21 7 10 14.0177 -0.5508
-21 7 11 -7.0161 2.5468
-21 7 12 9.0014 3.6293
-21 7 13 -5.6597 3.4180
-21 7 14 1.6514 3.5549
-21 7 15 -4.0860 2.6146
-21 7 16 10.2036 -0.6261
-21 7 17 1.0420 -1.2745
-21 7 18 7.7774 -0.6154
-21 7 19 -3.1177 -2.0667
-21 7 20 -3.4725 3.9299
-21 7 21 -10.4674 1.6329
-21 7 22 3.0030 6.0912
-21 7 23 -2.5393 4.7699
-21 7 24 13.1413 0.9356
-21 7 25 6.5881 7.0246
-21 7 26 5.5856 -6.2102
-21 9 1 -9.7421 3.7951
-21 9 2 -34.9967 -3.4133
-21 9 3 -10.8847 4.0893
-21 9 4 -35.2124 3.0888
-21 9 5 -6.5506 1.7331
-21 9 6 -16.4014 1.4480
-21 9 7 -2.2451 1.6424
-21 9 8 3.8904 -4.2223
-21 9 9 13.9748 1.8995
-21 9 10 10.9443 -3.9473
-21 9 11 39.3301 -0.8300
-21 9 12 9.1193 0.3103
-21 9 13 38.3055 -2.1870
-21 9 14 4.6718 2.5170
-21 9 15 9.1720 -1.5845
-21 9 16 -2.9923 3.3043
-21 9 17 -7.2497 -1.0017
-21 9 18 -7.6599 3.7952
-21 9 19 -2.5393 1.0082
-21 9 20 -3.4145 3.9828
-21 9 21 0.1035 0.1877
-21 11 7 -8.3675 -15.0883
-21 11 8 -0.8962 -8.1448
-21 11 9 0.9288 -4.7421
-20 0 2 -30.0880 9.6103
-20 0 4 -19.1705 14.6824
-20 0 6 -3.1401 8.0115
-20 0 8 3.8768 2.5383
-20 0 10 22.7101 -1.5111
-20 0 12 35.5478 -7.5626
-20 0 14 15.0592 -11.1447
-20 0 16 -14.1724 -12.5316
-20 0 18 -20.5837 -13.6358
-20 0 20 -9.8920 -11.4662
-20 0 22 4.2219 -6.6876
-20 0 24 16.3089 -1.6669
-20 0 26 18.5368 3.1529
-20 0 28 11.2482 4.0371
-20 0 30 6.1056 1.2708
-20 2 1 -8.4241 2.3079
-20 2 2 25.4094 1.1068
-20 2 3 7.0001 3.9651
-20 2 4 40.3473 -2.1074
-20 2 5 19.8309 6.3784
-20 2 6 26.6088 -4.7214
-20 2 7 -5.9869 8.1952
-20 2 8 5.5337 -1.1116
-20 2 9 -19.5846 8.0006
-20 2 10 2.2077 2.6893
-20 2 11 -2.9346 7.1118
-20 2 12 3.2404 1.3168
-20 2 13 8.8039 6.8464
-20 2 14 -4.4932 -0.3867
-20 2 15 5.7113 6.3020
-20 2 16 -8.2560 0.6512
-20 2 17 -7.0316 3.8048
-20 2 18 -4.3897 2.7851
-20 2 19 -14.8802 -0.3200
-20 2 20 -1.9848 4.1791
-20 2 21 1.8247 -2.9937
-20 2 22 0.1916 2.6069
-20 2 23 15.0831 -4.6932
-20 2 24 1.6512 -0.9588
-20 2 25 -1.5071 -8.0440
-20 2 26 -5.3988 -2.6441
-20 2 27 -7.7154 -8.0279
-20 2 28 -14.1690 -1.5095
-20 2 29 12.4396 -1.2379
-20 2 30 -10.7933 1.1970
-20 2 31 16.7831 4.1651
-20 4 1 -38.2980 -2.2284
-20 4 2 6.3092 -0.0733
-20 4 3 6.7728 -3.9581
-20 4 4 44.6920 -1.6877
-20 4 5 7.4706 -2.5651
-20 4 6 110.5995 -2.1099
-20 4 7 -33.6984 0.0981
-20 4 8 120.3295 -0.6426
-20 4 9 -38.9304 1.3327
-20 4 10 44.7951 -0.1700
-20 4 11 -15.7407 2.0318
-20 4 12 -29.3831 -0.1999
-20 4 13 -13.0861 2.4144
-20 4 14 -33.4493 1.0127
-20 4 15 -11.7859 1.5787
-20 4 16 -4.4958 1.8815
-20 4 17 3.7791 -2.1219
-20 4 18 2.4168 1.6144
-20 4 19 11.6768 -5.8985
-20 4 20 -3.5280 0.0831
-20 4 21 14.4351 -2.3820
-20 4 22 5.0829 -1.5173
-20 4 23 14.6698 3.9237
-20 4 24 17.4266 0.6329
-20 4 25 0.1082 2.4439
-20 4 26 15.4085 4.5763
-20 4 27 -10.0936 0.8313
-20 4 28 7.3382 4.2640
-20 4 29 -1.0864 7.9785
-20 4 30 3.0957 1.0844
-20 6 1 21.9441 -0.7999
-20 6 2 -25.7523 -0.9451
-20 6 3 7.2472 -1.7705
-20 6 4 -3.1482 -2.9000
-20 6 5 6.8193 -1.5327
-20 6 6 1.7606 -2.9886
-20 6 7 7.3031 -1.4409
-20 6 8 -19.7618 -0.4268
-20 6 9 3.1531 -0.0656
-20 6 10 -28.0038 0.0454
-20 6 11 1.3103 1.1327
-20 6 12 -11.2738 -0.3342
-20 6 13 -5.8503 0.0901
-20 6 14 3.7445 1.3478
-20 6 15 -15.2267 -0.1619
-20 6 16 10.6118 3.7342
-20 6 17 -7.1268 0.4333
-20 6 18 13.0255 5.7571
-20 6 19 6.8488 -0.4888
-20 6 20 1.3671 5.0625
-20 6 21 -0.8749 -0.7517
-20 6 22 -13.2316 1.1372
-20 6 23 -16.3087 -0.5598
-20 6 24 -7.9115 -1.7053
-20 6 25 -11.6337 -2.1579
-20 6 26 6.9439 -4.1530
-20 6 27 2.3953 -2.3618
-20 6 28 9.5337 -7.8952
-20 8 1 15.6608 -1.5285
-20 8 2 14.7443 0.8376
-20 8 3 5.6513 0.5023
-20 8 4 25.4639 -3.8387
-20 8 5 0.4845 1.5720
-20 8 6 8.3270 -4.0247
-20 8 7 1.9996 -0.9259
-20 8 8 -16.3408 -1.2420
-20 8 9 -9.5136 -2.7619
-20 8 10 -20.9168 -0.6038
-20 8 11 -17.9182 -4.5866
-20 8 12 -16.3331 0.7438
-20 8 13 -7.2604 -5.9819
-20 8 14 -13.4892 2.7304
-20 8 15 0.1413 -3.2844
-20 8 16 -1.4199 0.1309
-20 8 17 -2.9058 -0.8070
-20 8 18 10.7688 -4.1549
-20 8 19 -0.4413 -1.4213
-20 8 20 2.9055 -1.3595
-20 8 21 2.5563 -0.0956
-20 8 22 -10.8425 11.1035
-20 8 23 -1.6957 1.4830
-20 8 24 -9.1270 23.2068
-20 10 1 -14.2509 0.3980
-20 10 2 10.5244 0.2452
-20 10 3 -15.9708 4.0936
-20 10 4 0.0326 3.7862
-20 10 5 -10.8560 5.2521
-20 10 6 0.6408 8.4542
-20 10 7 -10.4838 1.0952
-20 10 8 5.0320 6.0190
-20 10 9 -14.4218 -2.0072
-20 10 10 5.4089 2.8121
-20 10 11 -4.3706 -2.6291
-20 10 12 10.0915 0.5949
-20 10 13 17.3545 -1.8393
-20 10 14 18.3284 -1.5754
-20 10 15 19.1977 -0.6157
-20 10 16 14.1734 4.6201
-20 10 17 -2.0614 -4.3743
-20 10 18 0.6702 16.1073
-20 10 19 -13.4312 -11.1963
-19 1 1 4.9347 -0.8402
-19 1 2 3.1434 -11.7902
-19 1 3 -10.4299 3.3954
-19 1 4 7.4093 -9.0291
-19 1 5 10.2117 1.8512
-19 1 6 2.8171 -7.3816
-19 1 7 43.9827 -2.7905
-19 1 8 -18.6362 -8.1407
-19 1 9 38.2797 -6.5837
-19 1 10 -26.6437 -4.3022
-19 1 11 6.8141 -9.2606
-19 1 12 1.0789 0.1152
-19 1 13 -9.4765 -9.8095
-19 1 14 27.6156 2.2910
-19 1 15 -4.7115 -8.2887
-19 1 16 16.5764 6.0587
-19 1 17 -0.7729 -6.2024
-19 1 18 -11.5399 8.5484
-19 1 19 -10.0136 -2.4083
-19 1 20 -22.3240 7.2222
-19 1 21 -10.9334 3.7108
-19 1 22 -12.2815 6.4082
-19 1 23 11.1322 8.7225
-19 1 24 4.8051 7.3396
-19 1 25 23.0719 9.1931
-19 1 26 15.1669 8.3896
-19 1 27 5.6920 6.3593
-19 1 28 10.0424 8.0769
-19 1 29 -8.2667 3.9849
-19 1 30 -2.8251 3.8037
-19 1 31 -4.7063 2.6982
-19 1 32 -6.5001 -1.4024
-19 3 1 23.4927 3.2300
-19 3 2 22.9855 3.7023
-19 3 3 2.7581 -0.0085
-19 3 4 -7.3022 6.4770
-19 3 5 4.2592 -2.4726
-19 3 6 -26.0350 4.9609
-19 3 7 -2.8244 -0.5472
-19 3 8 -2.7128 2.7472
-19 3 9 -21.0034 2.5591
-19 3 10 33.3082 2.7513
-19 3 11 -12.3483 2.3220
-19 3 12 35.5523 0.9240
-19 3 13 2.5750 -1.1803
-19 3 14 12.2956 -2.3194
-19 3 15 -3.6493 -3.1490
-19 3 16 1.9551 -3.3649
-19 3 17 -10.4591 -0.2832
-19 3 18 4.7660 -3.4145
-19 3 19 -14.1041 1.7761
-19 3 20 -2.3905 -3.4832
-19 3 21 -15.6937 -1.2292
-19 3 22 -11.0748 -2.9704
-19 3 23 2.3975 -3.1505
-19 3 24 -0.7947 -2.2913
-19 3 25 14.9070 -2.5553
-19 3 26 16.3447 -1.4135
-19 3 27 -4.9301 -2.3566
-19 3 28 19.2557 -2.0464
-19 3 29 -17.5296 4.4488
-19 3 30 11.7337 -5.4361
-19 5 1 -21.7144 4.3101
-19 5 2 18.8943 -0.9863
-19 5 3 -29.2502 2.2644
-19 5 4 4.4052 1.2181
-19 5 5 -2.3167 -1.9268
-19 5 6 -1.3122 2.0616
-19 5 7 19.7099 -2.9263
-19 5 8 17.5962 1.7649
-19 5 9 15.9010 -1.9252
-19 5 10 20.2379 1.5986
-19 5 11 13.0425 0.0214
-19 5 12 -8.8558 1.3305
-19 5 13 12.2177 1.0661
-19 5 14 -31.5121 1.3860
-19 5 15 -5.1685 -0.0231
-19 5 16 -23.3017 -0.0460
-19 5 17 -19.5613 -0.7070
-19 5 18 -1.8676 -2.2686
-19 5 19 -9.0753 -1.1733
-19 5 20 8.7896 -1.3807
-19 5 21 9.0332 -1.6070
-19 5 22 5.7219 -0.2175
-19 5 23 13.7959 1.2134
-19 5 24 -0.9289 -0.9106
-19 5 25 6.0278 2.9576
-19 5 26 -5.7301 1.9611
-19 5 27 -2.7977 -1.4473
-19 5 28 -7.4322 7.3648
-19 5 29 -2.8173 -3.8821
-19 7 1 -9.9426 0.5286
-19 7 2 -8.6503 4.4120
-19 7 3 -2.3254 -1.6100
-19 7 4 -11.3949 4.5240
-19 7 5 -10.7095 -0.7944
-19 7 6 10.8861 -0.1713
-19 7 7 -9.9990 -0.9439
-19 7 8 13.0210 -2.3117
-19 7 9 1.8600 -2.3571
-19 7 10 -3.6427 -0.5199
-19 7 11 5.0936 -0.8331
-19 7 12 -5.0236 -0.5742
-19 7 13 -0.0061 0.5450
-19 7 14 -0.6642 -1.2002
-19 7 15 -9.5288 0.7960
-19 7 16 -8.7402 0.4788
-19 7 17 -19.6888 3.8619
-19 7 18 -7.7375 2.3345
-19 7 19 -12.7828 5.5012
-19 7 20 6.0553 1.1769
-19 7 21 5.7766 1.2664
-19 7 22 3.4225 -3.0470
-19 7 23 7.0162 -4.1804
-19 7 24 -11.2959 -2.8312
-19 7 25 -3.8344 -7.7714
-19 7 26 -10.5820 4.9561
-19 7 27 -2.3651 -8.6843
-19 9 1 5.5171 -5.7918
-19 9 2 8.3341 2.9377
-19 9 3 8.2858 -3.6666
-19 9 4 27.8958 -0.6495
-19 9 5 7.4167 0.2493
-19 9 6 25.5697 -0.1085
-19 9 7 7.2801 1.6193
-19 9 8 8.0003 2.9252
-19 9 9 -7.8230 1.4958
-19 9 10 -10.5366 2.5759
-19 9 11 -45.8113 3.6028
-19 9 12 -20.5353 0.1383
-19 9 13 -64.6045 4.3146
-19 9 14 -19.3550 -1.5103
-19 9 15 -36.3770 1.9089
-19 9 16 -10.1290 -2.9332
-19 9 17 0.2958 -0.8318
-19 9 18 -1.0844 -3.0245
-19 9 19 11.1574 -3.6853
-19 9 20 1.3653 -3.5632
-19 9 21 8.3725 -3.3852
-19 9 22 -1.0538 -8.2443
-19 9 23 4.7739 2.7998
-19 11 1 4.1173 -2.5397
-19 11 2 11.9944 2.2626
-19 11 3 4.9838 -0.4432
-19 11 4 6.2377 0.0306
-19 11 5 12.8979 7.7140
-19 11 6 -0.7611 4.0032
-19 11 7 18.2635 11.2826
-19 11 8 -2.5145 5.6536
-19 11 9 13.3341 7.5780
-19 11 10 -5.2721 4.7776
-19 11 11 1.7934 -1.2416
-19 11 12 -6.5846 7.1942
-19 11 13 -3.4989 -12.5064
-19 11 14 1.8638 1.9389
-19 11 15 2.8701 -14.9874
-19 11 16 10.6710 -13.2140
-18 0 2 2.0954 19.0803
-18 0 4 -20.7556 12.6244
-18 0 6 -9.5974 15.5948
-18 0 8 10.1041 17.2976
-18 0 10 -4.6195 12.8195
-18 0 12 -32.1503 6.9647
-18 0 14 -23.6174 -1.0441
-18 0 16 10.1104 -8.5535
-18 0 18 22.7300 -11.1418
-18 0 20 7.3311 -12.5903
-18 0 22 -8.0635 -13.8007
-18 0 24 -8.0658 -11.3063
-18 0 26 2.0126 -6.8454
-18 0 28 10.5586 -1.3026
-18 0 30 7.7573 4.5726
-18 0 32 -2.0277 4.4777
-18 2 1 24.5913 -2.9461
-18 2 2 -11.0741 -3.2412
-18 2 3 18.6095 -6.0343
-18 2 4 -8.9256 -6.4284
-18 2 5 -11.2337 -5.0031
-18 2 6 1.1428 -5.4996
-18 2 7 -8.2599 -0.1012
-18 2 8 -1.1761 -6.0100
-18 2 9 14.5729 5.4534
-18 2 10 -15.8100 -4.1484
-18 2 11 17.0736 8.2280
-18 2 12 -18.0080 2.1001
-18 2 13 2.7919 7.9783
-18 2 14 -2.6525 3.7576
-18 2 15 -8.2705 6.7911
-18 2 16 10.8602 0.3637
-18 2 17 -2.5746 5.9762
-18 2 18 13.3818 -0.5621
-18 2 19 7.9583 4.8614
-18 2 20 8.7261 0.9058
-18 2 21 -4.9874 1.4960
-18 2 22 -0.7059 2.3091
-18 2 23 -20.7562 -1.9469
-18 2 24 -7.8181 3.5078
-18 2 25 -4.3146 -1.3552
-18 2 26 -3.9883 3.5127
-18 2 27 10.7955 -0.8714
-18 2 28 4.3395 3.0063
-18 2 29 -4.6397 -4.1045
-18 2 30 5.0232 2.1996
-18 2 31 -13.3278 -4.2634
-18 4 1 0.4696 -1.9525
-18 4 2 11.3893 0.1776
-18 4 3 -25.2941 1.0911
-18 4 4 13.4218 0.6904
-18 4 5 -31.1979 -0.2653
-18 4 6 -35.1231 -0.3134
-18 4 7 -6.3935 -1.7932
-18 4 8 -72.3460 -2.7019
-18 4 9 2.1937 -0.8865
-18 4 10 -38.6283 -2.3279
-18 4 11 -8.0333 0.1810
-18 4 12 18.1199 -0.3130
-18 4 13 -2.3896 0.7366
-18 4 14 26.5574 -0.0442
-18 4 15 5.7686 0.5306
-18 4 16 3.1354 -0.1536
-18 4 17 -1.0269 0.6525
-18 4 18 -2.4371 -0.7170
-18 4 19 -5.9079 2.0647
-18 4 20 3.6165 -1.9137
-18 4 21 -7.1110 0.3968
-18 4 22 -5.7290 -1.2878
-18 4 23 -6.1985 -2.9840
-18 4 24 -18.5973 -0.8392
-18 4 25 8.4662 -0.6605
-18 4 26 -16.1019 -1.7287
-18 4 27 18.6304 0.7221
-18 4 28 -8.7814 0.8244
-18 4 29 5.3725 -6.6520
-18 4 30 -6.8200 6.0551
-18 6 1 -12.2852 1.7523
-18 6 2 3.2753 -2.4443
-18 6 3 -4.9252 2.9187
-18 6 4 -16.5667 -2.4836
-18 6 5 4.4733 1.9355
-18 6 6 -23.5875 -0.7704
-18 6 7 5.1847 1.9524
-18 6 8 -2.8819 -1.5357
-18 6 9 -0.5816 -0.0231
-18 6 10 19.1382 -2.9637
-18 6 11 -1.7952 -3.4443
-18 6 12 20.4674 -2.8824
-18 6 13 11.7664 -3.1012
-18 6 14 13.6116 -1.1288
-18 6 15 25.7637 -1.5237
-18 6 16 6.8754 1.2316
-18 6 17 13.8065 -1.7117
-18 6 18 -1.6007 1.7415
-18 6 19 -11.0560 -0.7635
-18 6 20 -1.1299 2.9476
-18 6 21 -12.0473 0.9422
-18 6 22 8.4325 5.7222
-18 6 23 5.7264 2.2999
-18 6 24 9.3407 2.6695
-18 6 25 10.7210 4.3902
-18 6 26 1.2828 -4.3112
-18 6 27 3.0102 4.0324
-18 6 28 -1.1938 -5.4764
-18 8 1 8.0854 0.2632
-18 8 2 -9.9701 -4.0406
-18 8 3 2.2596 -1.5488
-18 8 4 -13.4440 -0.7256
-18 8 5 -2.3864 -2.4501
-18 8 6 -5.4119 1.6236
-18 8 7 -10.7884 0.2272
-18 8 8 9.2381 0.5320
-18 8 9 -0.4000 2.0495
-18 8 10 14.2469 0.0709
-18 8 11 20.2946 2.2438
-18 8 12 12.9886 0.0576
-18 8 13 21.2458 1.8509
-18 8 14 14.1181 -1.3357
-18 8 15 9.9069 -1.2335
-18 8 16 6.7781 -2.3715
-18 8 17 3.3017 -2.7193
-18 8 18 -8.6696 -1.7612
-18 8 19 -2.3979 1.3209
-18 8 20 -9.2772 0.1235
-18 8 21 -3.0338 4.1822
-18 8 22 4.9132 -0.8022
-18 8 23 5.2603 2.5734
-18 8 24 9.2440 -7.4231
-18 8 25 7.7839 0.8411
-18 8 26 0.7349 -10.4107
-18 10 1 -6.4712 3.7462
-18 10 2 -18.2686 1.4002
-18 10 3 -1.1628 3.5721
-18 10 4 -11.8652 3.2652
-18 10 5 0.7228 1.8211
-18 10 6 -5.9632 0.8577
-18 10 7 4.2453 0.9454
-18 10 8 -0.5784 0.9793
-18 10 9 14.6662 -0.3129
-18 10 10 4.4562 -0.8114
-18 10 11 17.3902 0.4534
-18 10 12 -1.4312 -1.8912
-18 10 13 -1.8281 2.7711
-18 10 14 -14.4326 3.6649
-18 10 15 -19.3692 1.3401
-18 10 16 -15.0749 3.7084
-18 10 17 -10.6751 -1.0773
-18 10 18 -4.6722 -8.4391
-18 10 19 5.2203 0.5681
-18 10 20 -1.7180 -14.9498
-18 10 21 5.7825 3.2677
-18 12 5 7.0952 1.3152
-18 12 6 5.6057 -9.0981
-18 12 9 -2.0322 0.6313
-18 12 10 6.2779 -2.0327
-18 12 11 -4.8827 11.2329
-17 1 1 -21.9714 7.0548
-17 1 2 29.2662 2.2702
-17 1 3 0.1928 8.9893
-17 1 4 19.3865 -2.5851
-17 1 5 6.9445 6.1747
-17 1 6 -1.3732 -8.7837
-17 1 7 -14.1002 1.8060
-17 1 8 5.0475 -9.4765
-17 1 9 -20.0618 -2.1687
-17 1 10 17.1972 -10.7356
-17 1 11 -1.5866 -4.5578
-17 1 12 -0.9341 -9.5844
-17 1 13 9.0607 -6.9476
-17 1 14 -27.3783 -3.7527
-17 1 15 -2.8127 -9.3394
-17 1 16 -21.3792 -1.2128
-17 1 17 -16.3408 -8.9916
-17 1 18 7.7655 -0.5138
-17 1 19 -8.1359 -6.1808
-17 1 20 22.3627 4.6029
-17 1 21 7.6523 -3.0421
-17 1 22 12.3169 9.5081
-17 1 23 4.0315 0.6228
-17 1 24 -5.1050 9.4818
-17 1 25 -3.9805 5.0847
-17 1 26 -15.1481 5.9281
-17 1 27 5.7541 6.9785
-17 1 28 -13.6373 1.8906
-17 1 29 12.7290 3.1670
-17 1 30 -5.0925 1.9686
-17 1 31 3.1618 -1.8636
-17 1 32 -0.0256 4.1379
-17 3 1 -11.3477 -0.9448
-17 3 2 -34.5075 3.2172
-17 3 3 1.6328 -0.7343
-17 3 4 -34.3144 1.9000
-17 3 5 -1.8355 0.7052
-17 3 6 -4.9111 3.9881
-17 3 7 -10.6416 0.5864
-17 3 8 8.2489 5.5597
-17 3 9 -1.8129 -0.2856
-17 3 10 -4.9350 3.0019
-17 3 11 7.9952 -0.9832
-17 3 12 -8.0689 2.0253
-17 3 13 11.9490 -0.8452
-17 3 14 5.3582 3.1380
-17 3 15 14.6313 -0.0939
-17 3 16 4.9327 1.8839
-17 3 17 9.1007 -0.8576
-17 3 18 -8.8295 0.7539
-17 3 19 8.3401 -0.9129
-17 3 20 -8.6894 1.0573
-17 3 21 15.7870 2.0321
-17 3 22 1.0186 -0.3755
-17 3 23 2.0264 2.2515
-17 3 24 -0.4392 -2.8273
-17 3 25 -19.2262 -0.9743
-17 3 26 -5.5217 -4.5143
-17 3 27 -8.8480 -2.7044
-17 3 28 -1.7327 -4.2592
-17 3 29 8.4269 -8.4131
-17 3 30 1.2484 -0.1578
-17 3 31 1.6374 -17.8256
-17 5 1 23.3507 -2.4068
-17 5 2 -27.4631 0.9147
-17 5 3 31.1484 0.5853
-17 5 4 -12.9338 0.4003
-17 5 5 10.1593 2.6777
-17 5 6 0.5395 -0.0794
-17 5 7 -4.6113 0.8642
-17 5 8 -17.2663 0.8938
-17 5 9 -3.4478 0.2363
-17 5 10 -34.5059 2.4689
-17 5 11 -12.0123 0.5537
-17 5 12 -18.0648 2.7239
-17 5 13 -23.2923 -0.2989
-17 5 14 7.3988 -0.2859
-17 5 15 -10.7812 -0.8781
-17 5 16 10.3816 -2.5057
-17 5 17 8.7936 -1.5692
-17 5 18 1.0745 -1.5871
-17 5 19 7.9674 -1.2408
-17 5 20 0.6071 -2.3930
-17 5 21 -2.8317 1.6838
-17 5 22 5.6005 -3.1465
-17 5 23 -6.4270 3.5057
-17 5 24 3.9552 0.4895
-17 5 25 -4.3633 4.7571
-17 5 26 -1.2594 2.7031
-17 5 27 -1.5896 8.4724
-17 5 28 -2.7222 1.2493
-17 5 29 -1.0994 8.2739
-17 7 1 9.8752 0.6281
-17 7 2 0.6685 2.9253
-17 7 3 -11.2848 1.0519
-17 7 4 3.7783 -1.3177
-17 7 5 -10.4381 0.2701
-17 7 6 -4.3853 -1.9670
-17 7 7 2.3240 0.8793
-17 7 8 -4.8905 0.0532
-17 7 9 2.6944 2.7443
-17 7 10 4.4349 1.2344
-17 7 11 -1.7031 1.1319
-17 7 12 3.0395 2.3696
-17 7 13 2.6991 -0.1357
-17 7 14 -3.4537 2.5144
-17 7 15 16.4442 2.5581
-17 7 16 3.9438 0.5477
-17 7 17 28.3848 3.2096
-17 7 18 9.6448 -2.7858
-17 7 19 18.9513 0.3781
-17 7 20 -1.5379 -4.7276
-17 7 21 -5.3208 -2.0168
-17 7 22 -7.7080 -0.3454
-17 7 23 -10.9655 -4.2039
-17 7 24 2.8877 4.6628
-17 7 25 3.4626 -4.7818
-17 7 26 10.8274 -1.9997
-17 7 27 9.1689 -2.5806
-17 7 28 7.4254 -13.0432
-17 9 1 -0.9579 0.7801
-17 9 2 18.7956 -3.5524
-17 9 3 3.5744 -0.5837
-17 9 4 -9.0067 -0.8645
-17 9 5 5.7019 -3.4868
-17 9 6 -20.7528 -0.9547
-17 9 7 -3.2518 -3.5701
-17 9 8 -14.2111 -1.9643
-17 9 9 -11.2528 -0.4682
-17 9 10 1.0415 -1.2157
-17 9 11 8.4114 0.7428
-17 9 12 11.7208 -1.9552
-17 9 13 37.1784 0.6082
-17 9 14 12.0464 -3.1918
-17 9 15 34.2371 1.1563
-17 9 16 9.5332 0.7305
-17 9 17 9.6740 1.0651
-17 9 18 10.6472 5.0800
-17 9 19 -4.3667 1.6625
-17 9 20 10.6623 2.7740
-17 9 21 -7.4824 3.4691
-17 9 22 6.0807 -0.6766
-17 9 23 -7.3792 4.2667
-17 9 24 1.9064 -1.5879
-17 11 1 5.6367 0.6363
-17 11 2 -9.7629 1.1515
-17 11 3 4.1102 1.2236
-17 11 4 -11.0752 3.4150
-17 11 5 -3.9871 -2.7897
-17 11 6 -4.7956 -0.0626
-17 11 7 -10.0654 -5.2806
-17 11 8 2.0892 -3.5502
-17 11 9 -10.2147 -6.9939
-17 11 10 11.9027 -3.1283
-17 11 11 -2.8849 -6.8150
-17 11 12 18.6901 -6.3638
-17 11 13 6.1613 2.5019
-17 11 14 9.5317 -7.3631
-17 11 15 3.6595 14.6616
-17 11 16 -6.5849 2.7157
-17 11 17 -7.1719 16.0631
-17 11 18 -8.0223 8.5368
-17 11 19 -8.9980 9.8956
-16 0 2 -29.3336 -28.2365
-16 0 4 8.3277 -7.9415
-16 0 6 10.5870 6.7074
-16 0 8 -18.9456 13.9794
-16 0 10 -16.8906 17.9449
-16 0 12 18.8188 15.3907
-16 0 14 31.0298 11.3745
-16 0 16 9.1856 8.7766
-16 0 18 -5.0372 2.2025
-16 0 20 -0.1616 -5.9196
-16 0 22 -2.0845 -10.7358
-16 0 24 -14.6826 -13.3327
-16 0 26 -17.4527 -12.2927
-16 0 28 -6.5706 -8.1043
-16 0 30 5.1865 -5.4185
-16 0 32 9.1701 -2.0742
-16 2 1 -19.6286 -4.9795
-16 2 2 -10.6551 2.8318
-16 2 3 -19.3775 -4.9242
-16 2 4 9.7004 5.1460
-16 2 5 4.4675 -4.7883
-16 2 6 5.4038 0.7392
-16 2 7 4.1605 -6.0917
-16 2 8 -2.9429 -0.9660
-16 2 9 -26.2733 -6.0255
-16 2 10 -0.5984 -1.0765
-16 2 11 -37.9017 -2.0083
-16 2 12 -2.0305 -4.8452
-16 2 13 -12.3944 3.6561
-16 2 14 -13.0245 -5.0194
-16 2 15 19.8277 7.4263
-16 2 16 -19.6949 -0.2486
-16 2 17 20.8441 8.4716
-16 2 18 -15.2747 1.2420
-16 2 19 -3.5933 7.7546
-16 2 20 -4.0977 0.4191
-16 2 21 -8.6806 7.4191
-16 2 22 7.8116 1.5054
-16 2 23 5.1025 6.3550
-16 2 24 11.5605 2.8347
-16 2 25 -3.8684 1.5262
-16 2 26 4.0497 2.8272
-16 2 27 -21.4815 -1.3663
-16 2 28 -3.5323 -0.1321
-16 2 29 -10.8871 2.2320
-16 2 30 -2.3208 -4.8737
-16 2 31 5.6705 2.5863
-16 2 32 1.1307 -5.1860
-16 4 1 1.9114 -1.8188
-16 4 2 10.4527 -3.1956
-16 4 3 13.6252 -2.0642
-16 4 4 -20.1238 -2.7816
-16 4 5 23.3983 0.6816
-16 4 6 -10.0301 0.9755
-16 4 7 13.7642 1.3499
-16 4 8 22.5648 4.3928
-16 4 9 11.6388 -0.9098
-16 4 10 17.9063 1.8985
-16 4 11 23.7156 -1.7834
-16 4 12 -12.5976 -2.4324
-16 4 13 23.4369 -1.3618
-16 4 14 -13.2793 -2.0938
-16 4 15 14.1299 -0.4655
-16 4 16 8.3915 -0.3643
-16 4 17 8.1354 0.8619
-16 4 18 7.5133 0.3572
-16 4 19 -3.1002 0.8378
-16 4 20 -8.0586 1.5731
-16 4 21 -9.2542 1.3345
-16 4 22 -4.6712 0.8682
-16 4 23 1.4322 1.7419
-16 4 24 7.7146 -0.9411
-16 4 25 7.6944 -3.7145
-16 4 26 5.6046 -0.1778
-16 4 27 3.4486 -8.9946
-16 4 28 -1.1723 0.3580
-16 4 29 5.7429 -5.6980
-16 4 30 -0.3392 -0.9907
-16 6 1 15.4836 -2.4268
-16 6 2 6.3265 2.9000
-16 6 3 29.1115 -1.5310
-16 6 4 -0.5541 4.2451
-16 6 5 9.4169 1.5215
-16 6 6 2.7863 1.6047
-16 6 7 -13.9928 1.5234
-16 6 8 7.6233 -0.7904
-16 6 9 -14.4014 0.4807
-16 6 10 5.8369 -1.3151
-16 6 11 -7.8329 1.1333
-16 6 12 2.2634 -1.2907
-16 6 13 -17.6973 -0.0061
-16 6 14 -2.8126 -2.9334
-16 6 15 -27.8397 -1.9206
-16 6 16 -9.0461 -5.3708
-16 6 17 -8.9048 -1.8189
-16 6 18 -9.8614 -3.4598
-16 6 19 22.8518 -1.9483
-16 6 20 -7.0741 -0.0421
-16 6 21 26.9081 -1.8884
-16 6 22 -5.6443 -0.9245
-16 6 23 5.8310 -0.3582
-16 6 24 -2.5760 0.7235
-16 6 25 -7.9602 1.1853
-16 6 26 1.6426 7.5347
-16 6 27 -8.4579 5.4451
-16 6 28 1.5990 9.2019
-16 6 29 -7.3602 11.4715
-16 8 1 -13.6695 0.8341
-16 8 2 8.9715 4.7539
-16 8 3 -14.5500 0.4055
-16 8 4 11.5698 2.7723
-16 8 5 -12.9170 1.0513
-16 8 6 5.4964 1.5739
-16 8 7 6.5389 -0.0294
-16 8 8 -1.4298 0.8569
-16 8 9 19.5916 -0.2515
-16 8 10 1.3191 -0.6942
-16 8 11 7.6901 0.1713
-16 8 12 7.1037 -1.0518
-16 8 13 -7.7199 -1.4401
-16 8 14 -0.3372 0.5462
-16 8 15 -12.7048 -1.7962
-16 8 16 -12.6905 1.8769
-16 8 17 -11.6915 0.1605
-16 8 18 -9.8299 2.6116
-16 8 19 -4.7081 1.1711
-16 8 20 1.0184 0.7761
-16 8 21 -0.2621 2.1062
-16 8 22 2.4740 -4.1787
-16 8 23 -6.7604 2.2875
-16 8 24 -0.6117 -4.9992
-16 8 25 -10.5382 -1.8508
-16 8 26 1.1539 -0.5835
-16 8 27 -3.2080 -7.0485
-16 10 1 -1.9310 -4.6796
-16 10 2 2.4339 -0.9646
-16 10 3 -0.8919 -3.5939
-16 10 4 2.9684 -1.6418
-16 10 5 3.5649 -1.9705
-16 10 6 -1.2929 -0.8141
-16 10 7 5.9797 -1.0859
-16 10 8 -10.7936 -2.0314
-16 10 9 -1.8536 0.8129
-16 10 10 -21.1174 1.7745
-16 10 11 -14.5106 1.2991
-16 10 12 -16.4467 8.6950
-16 10 13 -9.1220 -0.5669
-16 10 14 1.1399 5.2156
-16 10 15 10.8083 0.6111
-16 10 16 8.8926 -3.0207
-16 10 17 15.7840 3.0314
-16 10 18 3.6282 -0.3952
-16 10 19 4.2744 -1.3185
-16 10 20 2.6508 6.1356
-16 10 21 -2.5757 -11.3948
-16 10 22 6.4779 5.7608
-16 12 1 -1.9339 3.2077
-16 12 2 5.1680 -1.2390
-16 12 3 -7.0049 -2.9775
-16 12 4 1.7110 -1.5794
-16 12 5 -11.6873 -0.4592
-16 12 6 4.0582 4.7478
-16 12 7 -10.3694 4.2754
-16 12 8 5.3092 6.5402
-16 12 9 -2.4035 4.2823
-16 12 10 0.6697 2.4119
-16 12 11 0.6594 -4.2894
-16 12 12 -4.2123 -0.5552
-16 12 13 -3.8466 -11.4771
-16 12 14 -4.2671 -3.6331
-15 1 1 13.5606 -6.9133
-15 1 2 -41.0030 1.4829
-15 1 3 -9.8196 0.0780
-15 1 4 -40.4599 1.4988
-15 1 5 -16.1099 10.2783
-15 1 6 6.2790 2.4977
-15 1 7 10.2705 15.2083
-15 1 8 29.9339 -3.8266
-15 1 9 25.8337 11.4961
-15 1 10 13.3091 -7.9170
-15 1 11 8.8180 2.5318
-15 1 12 0.1964 -8.2624
-15 1 13 -6.5355 -4.2187
-15 1 14 3.7598 -10.5495
-15 1 15 7.5454 -6.0951
-15 1 16 -1.9465 -9.0412
-15 1 17 30.4766 -6.8573
-15 1 18 -16.6469 -2.8937
-15 1 19 25.8192 -8.8368
-15 1 20 -13.7011 0.1708
-15 1 21 -0.7336 -10.6301
-15 1 22 6.4173 1.2417
-15 1 23 -10.5027 -10.3420
-15 1 24 16.3914 3.6795
-15 1 25 0.0714 -7.8496
-15 1 26 7.7033 5.6840
-15 1 27 2.9486 -3.0465
-15 1 28 -3.2342 5.7058
-15 1 29 -1.7716 5.2588
-15 1 30 -5.3016 1.1404
-15 1 31 -0.0051 12.0614
-15 1 32 -1.6837 -5.3461
-15 3 1 -3.1675 5.3509
-15 3 2 15.5177 -0.7098
-15 3 3 -11.7554 0.9432
-15 3 4 17.6801 -1.0318
-15 3 5 -0.7034 -2.6365
-15 3 6 -1.2526 -1.3631
-15 3 7 27.6460 -1.9341
-15 3 8 -12.2958 -0.3466
-15 3 9 29.1036 0.0925
-15 3 10 -1.3932 4.0292
-15 3 11 -2.1001 1.2292
-15 3 12 1.9779 5.4387
-15 3 13 -32.8848 0.8811
-15 3 14 -10.4320 3.5855
-15 3 15 -34.5716 -0.9181
-15 3 16 -8.1715 4.4488
-15 3 17 -6.5966 -1.0825
-15 3 18 9.5940 4.6070
-15 3 19 11.3347 -0.2024
-15 3 20 10.9668 0.6647
-15 3 21 -2.7796 -1.7481
-15 3 22 -2.6472 -2.5627
-15 3 23 -10.0837 -1.8530
-15 3 24 -5.8230 -3.4585
-15 3 25 6.4817 0.5777
-15 3 26 -2.2740 -3.1491
-15 3 27 11.9102 0.4926
-15 3 28 -4.7881 -1.7639
-15 3 29 3.8839 3.6989
-15 3 30 -3.5161 -2.4271
-15 3 31 5.6264 12.4677
-15 5 1 -6.9153 2.8801
-15 5 2 11.1113 -4.7068
-15 5 3 -1.2668 0.4267
-15 5 4 10.6791 -3.5585
-15 5 5 22.1514 -0.6023
-15 5 6 -9.1451 -1.7758
-15 5 7 18.3841 1.6928
-15 5 8 -5.2215 0.3646
-15 5 9 -9.7257 1.4589
-15 5 10 17.6462 1.6203
-15 5 11 -14.8421 -0.6703
-15 5 12 17.6358 1.5964
-15 5 13 2.9481 -0.7690
-15 5 14 -2.3698 3.1958
-15 5 15 5.3796 -0.6962
-15 5 16 -8.2737 3.9455
-15 5 17 -3.9210 -1.5699
-15 5 18 -0.0856 0.6296
-15 5 19 -1.2464 -3.2501
-15 5 20 -0.3358 -1.1291
-15 5 21 2.4097 -5.6610
-15 5 22 -6.9979 -0.5738
-15 5 23 -5.9535 -5.2112
-15 5 24 -4.6678 -3.4698
-15 5 25 -12.9577 -2.8179
-15 5 26 2.4802 -6.7890
-15 5 27 -10.5520 -2.1312
-15 5 28 3.4426 -7.4614
-15 5 29 -6.0027 2.2525
-15 7 1 -21.3452 1.3742
-15 7 2 12.8241 -2.2886
-15 7 3 -0.3495 1.3840
-15 7 4 21.7419 0.6482
-15 7 5 10.7702 0.2591
-15 7 6 15.3017 2.4186
-15 7 7 -4.0865 -1.6258
-15 7 8 -5.5624 1.5514
-15 7 9 -14.2416 -3.9055
-15 7 10 -24.2366 -0.0623
-15 7 11 -6.0732 -2.4442
-15 7 12 -19.7859 -0.9586
-15 7 13 1.3868 0.8855
-15 7 14 1.8451 0.0497
-15 7 15 -6.4450 1.8471
-15 7 16 10.8945 0.4369
-15 7 17 -19.9068 2.6763
-15 7 18 1.9031 -1.0851
-15 7 19 -16.6414 3.2622
-15 7 20 -4.3656 -0.1518
-15 7 21 2.7515 1.6171
-15 7 22 -2.9424 2.0231
-15 7 23 10.9898 1.4064
-15 7 24 -2.6633 2.6910
-15 7 25 2.2264 1.8205
-15 7 26 -2.7558 7.8579
-15 7 27 -2.5261 -2.0823
-15 7 28 -0.9935 15.7489
-15 9 1 10.3319 -1.6553
-15 9 2 -17.9789 -3.9190
-15 9 3 7.0389 -3.4093
-15 9 4 -3.4692 -6.0459
-15 9 5 -0.1514 -0.6915
-15 9 6 11.1212 -2.6071
-15 9 7 -0.5172 1.3001
-15 9 8 14.4536 1.7560
-15 9 9 10.9625 -0.3936
-15 9 10 4.7211 0.2215
-15 9 11 11.2399 -0.8695
-15 9 12 -5.1429 -2.7166
-15 9 13 -7.1349 0.4974
-15 9 14 -3.5798 -1.0257
-15 9 15 -16.5657 -0.2800
-15 9 16 -0.6464 1.1767
-15 9 17 -8.5184 -2.1075
-15 9 18 -7.8718 1.9496
-15 9 19 -0.1415 -1.8843
-15 9 20 -14.3811 4.9958
-15 9 21 4.5663 0.9080
-15 9 22 -9.0584 5.9594
-15 9 23 6.4617 4.0924
-15 9 24 -0.7435 0.5265
-15 9 25 0.2923 4.0568
-15 11 1 -10.9996 1.6814
-15 11 2 -0.0159 0.4510
-15 11 3 -19.3149 2.0456
-15 11 4 5.2067 -2.2323
-15 11 5 -17.4537 2.8870
-15 11 6 3.2987 -2.7617
-15 11 7 -11.1045 0.8445
-15 11 8 2.0511 -1.8207
-15 11 9 -2.2153 0.4206
-15 11 10 -0.9375 -3.7007
-15 11 11 4.1565 4.5566
-15 11 12 -5.6608 -1.6168
-15 11 13 0.2868 3.2996
-15 11 14 -1.3536 3.6803
-15 11 15 -4.7903 -6.6530
-15 11 16 9.1044 -0.6671
-15 11 17 -1.3239 -13.9419
-15 11 18 8.5299 -9.7389
-15 11 19 1.3146 -14.5270
-15 11 20 -1.2816 -9.3152
-15 13 4 -8.6433 6.1975
-15 13 5 1.1467 -9.1260
-15 13 6 -10.9280 6.2611
-15 13 7 -2.3000 4.9281
-14 0 2 51.2970 20.9701
-14 0 4 -15.5082 -1.7131
-14 0 6 -58.1189 -9.0906
-14 0 8 -23.9689 -1.7957
-14 0 10 18.4672 5.3013
-14 0 12 15.0180 12.7205
-14 0 14 -0.2533 18.3729
-14 0 16 0.2365 16.8123
-14 0 18 -8.0943 12.8877
-14 0 20 -28.0979 8.9231
-14 0 22 -23.2036 2.5309
-14 0 24 8.9462 -3.5793
-14 0 26 26.1311 -8.4455
-14 0 28 11.7406 -11.7741
-14 0 30 -7.8100 -9.2423
-14 0 32 -10.7492 -3.8238
-14 2 1 30.0376 1.1354
-14 2 2 50.3355 1.8127
-14 2 3 41.2536 -1.0629
-14 2 4 21.5355 2.9363
-14 2 5 6.9760 -5.8912
-14 2 6 0.1462 3.9089
-14 2 7 -16.0603 -8.6199
-14 2 8 -4.1898 0.2297
-14 2 9 12.1730 -8.4511
-14 2 10 1.5719 -4.7960
-14 2 11 39.1735 -7.1193
-14 2 12 13.5853 -2.7286
-14 2 13 14.4426 -4.5604
-14 2 14 22.6724 -0.3221
-14 2 15 -32.5013 -1.2110
-14 2 16 18.5117 -3.2026
-14 2 17 -38.0646 1.5590
-14 2 18 6.8467 -4.0477
-14 2 19 4.0301 4.3288
-14 2 20 -0.6139 -1.1791
-14 2 21 31.8144 6.1106
-14 2 22 -0.7715 1.2057
-14 2 23 15.6717 6.6427
-14 2 24 5.5226 2.5879
-14 2 25 -2.3115 9.3606
-14 2 26 12.2529 2.4110
-14 2 27 -0.5787 9.6333
-14 2 28 8.5281 2.4865
-14 2 29 -2.2621 1.1700
-14 2 30 -3.1450 4.5626
-14 2 31 -6.8512 -4.8519
-14 2 32 -7.1820 2.7274
-14 4 1 -0.9804 3.5822
-14 4 2 -26.0344 -0.0873
-14 4 3 -20.2721 2.3745
-14 4 4 10.7897 0.8244
-14 4 5 -29.7646 -0.1335
-14 4 6 26.5117 -0.7729
-14 4 7 -8.5113 -0.6705
-14 4 8 4.1098 -3.8487
-14 4 9 15.4181 0.4153
-14 4 10 -6.8810 -2.8478
-14 4 11 13.9479 -0.5589
-14 4 12 8.2901 -0.0959
-14 4 13 0.7003 -1.2069
-14 4 14 7.6692 -1.3010
-14 4 15 -12.6741 0.4602
-14 4 16 -11.7668 -2.2591
-14 4 17 -22.6707 1.7813
-14 4 18 -9.4114 -0.3364
-14 4 19 -14.7099 2.1546
-14 4 20 10.8587 -0.0632
-14 4 21 2.4345 0.6841
-14 4 22 11.0965 -0.6543
-14 4 23 3.9318 -1.5726
-14 4 24 -3.1011 -0.2676
-14 4 25 -2.0065 0.8490
-14 4 26 -2.6389 -1.3352
-14 4 27 -0.0792 3.2478
-14 4 28 5.6564 -2.6176
-14 4 29 0.8599 -1.3281
-14 4 30 4.3058 -2.7384
-14 6 1 -9.5833 -1.9226
-14 6 2 -18.6545 0.6016
-14 6 3 -39.8625 0.0915
-14 6 4 -0.1238 -0.3778
-14 6 5 -22.7831 -0.3177
-14 6 6 13.5360 -0.7391
-14 6 7 16.9737 0.4842
-14 6 8 4.6483 -1.1438
-14 6 9 24.0762 2.4555
-14 6 10 -9.7325 -1.3273
-14 6 11 4.7402 2.2632
-14 6 12 -14.7714 -2.0916
-14 6 13 0.2726 1.4203
-14 6 14 -11.1684 -2.7257
-14 6 15 8.1376 0.6866
-14 6 16 -0.9720 -1.4355
-14 6 17 -1.0891 -0.4382
-14 6 18 10.9793 -1.5803
-14 6 19 -18.1531 -0.5922
-14 6 20 15.4223 -2.5449
-14 6 21 -13.8541 -1.9915
-14 6 22 7.9317 1.4758
-14 6 23 1.9999 -4.6483
-14 6 24 -5.4560 5.4530
-14 6 25 3.3166 -2.8099
-14 6 26 -12.9090 4.1465
-14 6 27 -2.3229 0.5108
-14 6 28 -9.3266 4.6302
-14 6 29 1.3096 -1.0842
-14 6 30 -1.3504 6.4112
-14 8 1 -1.2542 3.0663
-14 8 2 -8.7119 1.8484
-14 8 3 4.9143 3.3720
-14 8 4 -11.0437 2.2032
-14 8 5 13.3024 0.9133
-14 8 6 -2.0993 -0.2885
-14 8 7 1.5166 0.1020
-14 8 8 8.3125 -1.9535
-14 8 9 -20.8849 0.6206
-14 8 10 5.8889 -0.3510
-14 8 11 -23.0258 1.2100
-14 8 12 -8.2154 1.2670
-14 8 13 -6.6879 2.6170
-14 8 14 -11.8780 1.4045
-14 8 15 7.7265 1.8633
-14 8 16 3.1362 2.6414
-14 8 17 11.1577 -1.6930
-14 8 18 13.9378 2.2744
-14 8 19 3.0346 -2.9834
-14 8 20 6.5112 -1.6201
-14 8 21 -4.0310 -1.0361
-14 8 22 -4.3075 -2.8380
-14 8 23 3.2771 1.7680
-14 8 24 -7.0220 -0.4847
-14 8 25 12.8846 4.6007
-14 8 26 -6.2236 -0.5163
-14 8 27 9.6533 4.5165
-14 10 1 12.0632 -1.2752
-14 10 2 7.6689 0.4927
-14 10 3 12.4680 -1.0385
-14 10 4 8.8129 0.1324
-14 10 5 6.5335 -0.2708
-14 10 6 6.4839 -1.4702
-14 10 7 -2.2168 1.2943
-14 10 8 6.6928 0.9498
-14 10 9 -8.1374 0.0014
-14 10 10 11.9179 2.7120
-14 10 11 -3.1667 -2.9864
-14 10 12 10.1478 -1.3418
-14 10 13 2.4464 -2.0261
-14 10 14 0.6993 -3.1681
-14 10 15 -1.5963 1.3502
-14 10 16 -0.1277 0.5410
-14 10 17 -3.8323 3.1208
-14 10 18 6.1907 2.0474
-14 10 19 0.6026 4.0396
-14 10 20 2.2827 3.3206
-14 10 21 0.8999 4.8201
-14 10 22 -8.7141 9.4470
-14 10 23 -2.0129 5.1995
-14 12 1 4.8920 -4.3884
-14 12 2 -9.9808 4.7068
-14 12 3 12.4711 2.9533
-14 12 4 -2.8855 6.5782
-14 12 5 17.2813 1.8548
-14 12 6 -3.1684 1.2777
-14 12 7 18.4539 -1.5379
-14 12 8 -8.0170 -3.8472
-14 12 9 12.7996 -2.9695
-14 12 10 -7.5982 -2.3954
-14 12 11 7.9849 -0.4473
-14 12 12 -2.6756 -0.7447
-14 12 13 9.3416 2.6072
-14 12 14 -0.3769 0.2781
-14 12 15 8.2888 -4.1241
-14 12 16 -1.0224 3.9414
-14 12 17 3.0433 -15.8336
-13 1 1 -28.0764 0.2894
-13 1 2 32.8173 9.4102
-13 1 3 -18.3968 -2.0126
-13 1 4 60.2751 9.4217
-13 1 5 -4.9950 -0.4364
-13 1 6 22.2270 3.0565
-13 1 7 -22.4640 4.7232
-13 1 8 -25.2236 3.3897
-13 1 9 -37.3901 10.2768
-13 1 10 -27.7835 2.9405
-13 1 11 -12.0718 13.0741
-13 1 12 -6.4754 -3.9093
-13 1 13 22.6022 11.1524
-13 1 14 7.4507 -8.2798
-13 1 15 17.6165 5.8896
-13 1 16 19.6437 -9.8622
-13 1 17 -20.0338 0.1984
-13 1 18 29.4804 -11.8127
-13 1 19 -41.0152 -4.4928
-13 1 20 15.9584 -10.1575
-13 1 21 -24.6165 -7.3239
-13 1 22 -14.9166 -5.6770
-13 1 23 -0.5598 -8.9347
-13 1 24 -25.6989 -1.8520
-13 1 25 6.8598 -9.5643
-13 1 26 -4.2093 1.3666
-13 1 27 7.2290 -7.5518
-13 1 28 18.7276 3.6239
-13 1 29 7.1494 -5.9749
-13 1 30 18.0846 8.0002
-13 1 31 2.0322 -7.3342
-13 1 32 4.5547 14.8853
-13 1 33 -1.5819 -4.6957
-13 3 1 4.6347 -0.7562
-13 3 2 2.0949 2.1255
-13 3 3 20.0322 3.1358
-13 3 4 -6.2594 -1.5643
-13 3 5 16.5434 3.1356
-13 3 6 -3.3989 -2.4613
-13 3 7 -28.1149 -0.0006
-13 3 8 -5.5347 -0.5490
-13 3 9 -55.8658 -0.9637
-13 3 10 -22.6073 0.0231
-13 3 11 -23.7397 0.7434
-13 3 12 -23.4328 1.8342
-13 3 13 29.2831 2.3301
-13 3 14 2.6538 4.7957
-13 3 15 43.2523 3.0907
-13 3 16 16.9171 3.5108
-13 3 17 11.3075 1.2679
-13 3 18 3.8968 1.2721
-13 3 19 -14.4838 -1.6574
-13 3 20 -5.6215 2.3083
-13 3 21 1.8338 -0.6070
-13 3 22 -2.4455 2.5685
-13 3 23 24.4633 1.0610
-13 3 24 -6.4398 1.5260
-13 3 25 16.1714 -0.1912
-13 3 26 -12.7245 1.9287
-13 3 27 -1.0272 0.0737
-13 3 28 -6.1554 2.6540
-13 3 29 -5.7447 -3.0891
-13 3 30 0.4366 3.9173
-13 3 31 -6.9467 -13.7522
-13 3 32 -3.6274 5.0897
-13 5 1 10.4567 -4.8431
-13 5 2 -5.2048 -0.5644
-13 5 3 7.4296 -2.6950
-13 5 4 -12.0694 -1.3980
-13 5 5 -27.5030 0.1182
-13 5 6 13.5041 -0.5534
-13 5 7 -36.1250 0.1105
-13 5 8 28.8916 -0.5859
-13 5 9 -2.6718 0.9055
-13 5 10 11.8212 -1.0911
-13 5 11 19.4678 2.8973
-13 5 12 -0.3468 0.6691
-13 5 13 9.6690 2.8032
-13 5 14 7.6720 2.1057
-13 5 15 1.4197 1.6524
-13 5 16 4.8867 2.8231
-13 5 17 1.1783 0.6302
-13 5 18 -13.9167 5.6454
-13 5 19 -9.1485 0.2572
-13 5 20 -17.0989 6.0663
-13 5 21 -15.2903 1.2395
-13 5 22 1.4505 1.5337
-13 5 23 -0.7122 -0.0759
-13 5 24 15.4616 -3.0681
-13 5 25 13.7537 -3.6420
-13 5 26 14.3452 -7.3323
-13 5 27 10.4588 -4.5819
-13 5 28 8.8148 -9.3382
-13 5 29 1.8632 -7.0287
-13 7 1 21.9351 -1.7512
-13 7 2 0.6617 0.1830
-13 7 3 -2.6679 -2.0033
-13 7 4 -14.3551 0.4932
-13 7 5 -23.4227 -1.9240
-13 7 6 -15.5198 0.1834
-13 7 7 -5.1046 -1.8343
-13 7 8 0.2594 -0.1873
-13 7 9 23.1173 -1.0886
-13 7 10 17.5288 0.2039
-13 7 11 23.7213 -1.8298
-13 7 12 20.0327 1.7514
-13 7 13 9.1525 -3.5302
-13 7 14 6.2676 1.2731
-13 7 15 6.9861 -3.7653
-13 7 16 -4.4011 -0.7763
-13 7 17 14.6136 -3.5451
-13 7 18 2.6856 -0.3595
-13 7 19 10.8400 -1.0003
-13 7 20 15.1519 -0.2460
-13 7 21 -4.5142 5.3430
-13 7 22 16.0247 -1.9358
-13 7 23 -8.9834 7.7312
-13 7 24 6.8103 -0.6205
-13 7 25 0.9341 3.7765
-13 7 26 -2.5811 1.6057
-13 7 27 5.7655 3.0839
-13 7 28 -6.1269 0.6168
-13 9 1 -1.1876 2.1931
-13 9 2 -3.6303 1.5071
-13 9 3 -2.0043 3.2103
-13 9 4 -5.2801 3.9524
-13 9 5 1.7989 1.8448
-13 9 6 -10.6387 3.1960
-13 9 7 9.7936 -0.4653
-13 9 8 -9.9116 -0.0081
-13 9 9 9.0256 -0.6839
-13 9 10 1.4639 -0.2568
-13 9 11 1.2264 -1.8322
-13 9 12 9.0299 1.3170
-13 9 13 -1.5252 -4.5884
-13 9 14 -2.3355 -0.9195
-13 9 15 -2.0143 -3.8713
-13 9 16 -16.3553 -4.0749
-13 9 17 -1.3991 -0.0121
-13 9 18 -8.5702 -2.1780
-13 9 19 5.3012 0.7777
-13 9 20 10.0256 1.6462
-13 9 21 8.6084 -3.7732
-13 9 22 14.8537 3.1831
-13 9 23 2.2937 -8.7001
-13 9 24 7.6740 3.3062
-13 9 25 -1.3868 -8.0354
-13 11 1 -3.1987 3.8433
-13 11 2 3.0745 -3.0091
-13 11 3 6.9442 2.1708
-13 11 4 0.3277 0.1761
-13 11 5 10.7874 -1.3510
-13 11 6 4.0076 2.4001
-13 11 7 9.7569 -1.2079
-13 11 8 3.4557 1.0026
-13 11 9 5.6127 2.9519
-13 11 10 0.5979 1.5282
-13 11 11 -2.4142 3.9964
-13 11 12 1.2319 3.6995
-13 11 13 -5.8539 1.9110
-13 11 14 -0.9680 2.7129
-13 11 15 -3.1231 1.7882
-13 11 16 -7.1347 1.7353
-13 11 17 -2.8435 3.6533
-13 11 18 -6.2377 0.6801
-13 11 19 -3.8132 9.5308
-13 11 20 0.4221 -5.7924
-13 11 21 -1.3251 19.0620
-13 13 1 -16.9497 0.1457
-13 13 2 5.0239 -6.4504
-13 13 3 -7.2923 12.0474
-13 13 4 9.0823 -4.8218
-13 13 5 3.4954 12.6708
-13 13 6 15.5899 -3.2278
-13 13 7 7.8518 3.5224
-13 13 8 16.3301 -4.3090
-13 13 9 5.2470 0.1384
-13 13 10 7.4559 -4.3994
-12 0 2 -47.5466 -29.0393
-12 0 4 -1.7681 -17.5657
-12 0 6 53.0180 -12.9728
-12 0 8 36.6642 -16.3418
-12 0 10 -12.7215 -10.0698
-12 0 12 -26.8331 1.4477
-12 0 14 -17.1032 8.1063
-12 0 16 -11.6424 12.6796
-12 0 18 7.7338 15.6215
-12 0 20 41.3513 15.4488
-12 0 22 41.9224 13.7952
-12 0 24 -3.3569 9.3436
-12 0 26 -39.6441 3.0935
-12 0 28 -27.5831 -1.8111
-12 0 30 4.5071 -7.1183
-12 0 32 15.7860 -10.3595
-12 2 1 -14.5708 0.0338
-12 2 2 -69.6605 -7.2951
-12 2 3 -42.3324 1.2481
-12 2 4 -54.3454 0.8777
-12 2 5 -9.6284 -0.0264
-12 2 6 -22.9069 4.5863
-12 2 7 38.4695 -3.5580
-12 2 8 3.9286 4.3734
-12 2 9 19.1875 -6.4773
-12 2 10 12.7033 3.5227
-12 2 11 -34.4964 -7.4157
-12 2 12 2.3056 -1.3063
-12 2 13 -36.8732 -8.7744
-12 2 14 -12.4361 -5.3620
-12 2 15 10.3179 -9.9385
-12 2 16 -16.2152 -3.2050
-12 2 17 33.9965 -7.3257
-12 2 18 -11.5454 -0.8455
-12 2 19 4.7787 -2.2872
-12 2 20 -7.2534 -1.5949
-12 2 21 -27.7807 3.2549
-12 2 22 -5.4097 -2.4740
-12 2 23 -21.5364 8.2534
-12 2 24 -8.5465 -1.8571
-12 2 25 -0.9722 6.9229
-12 2 26 -14.5206 2.0603
-12 2 27 3.9917 2.2251
-12 2 28 -10.5545 5.9996
-12 2 29 3.0325 5.9238
-12 2 30 3.1581 3.7333
-12 2 31 3.3962 11.4489
-12 2 32 7.8943 0.5773
-12 4 1 -9.2973 3.7625
-12 4 2 34.6717 2.3322
-12 4 3 -8.5636 2.0224
-12 4 4 12.5241 -1.0166
-12 4 5 2.9304 1.8129
-12 4 6 -7.2303 -2.0241
-12 4 7 -3.8834 0.9678
-12 4 8 6.2453 0.8153
-12 4 9 -26.8440 -0.4665
-12 4 10 15.1378 1.5555
-12 4 11 -31.8877 0.2872
-12 4 12 -4.0176 -0.3051
-12 4 13 -11.4336 0.8829
-12 4 14 -10.1276 0.3679
-12 4 15 17.4232 -0.5129
-12 4 16 13.0043 0.9305
-12 4 17 36.2726 -0.7856
-12 4 18 21.8651 -1.0610
-12 4 19 27.6038 0.1089
-12 4 20 3.2787 -0.8933
-12 4 21 -0.1871 1.2431
-12 4 22 -3.9215 1.2798
-12 4 23 -14.3505 2.3892
-12 4 24 9.7134 2.0378
-12 4 25 -8.5728 0.2932
-12 4 26 14.8345 1.4784
-12 4 27 -2.3396 -0.5667
-12 4 28 6.5197 -1.2620
-12 4 29 -0.9979 6.1304
-12 4 30 2.0015 -3.8336
-12 4 31 -0.9661 8.5745
-12 6 1 -8.6949 -0.4721
-12 6 2 26.0761 -0.9739
-12 6 3 31.9714 -2.9540
-12 6 4 9.4557 -0.5888
-12 6 5 33.2023 -2.6222
-12 6 6 -16.5380 0.2152
-12 6 7 -2.5654 -0.9283
-12 6 8 -16.0984 2.1321
-12 6 9 -14.1348 -0.2550
-12 6 10 -1.5412 2.5802
-12 6 11 5.3887 0.1477
-12 6 12 2.8558 1.3850
-12 6 13 10.0701 0.6705
-12 6 14 1.0778 0.2577
-12 6 15 -3.6221 2.3353
-12 6 16 -0.1923 -1.7134
-12 6 17 -1.3225 4.0259
-12 6 18 -6.1414 -2.5564
-12 6 19 12.2073 1.5931
-12 6 20 -13.8345 -1.4049
-12 6 21 6.0570 -2.1207
-12 6 22 -12.1812 -2.8246
-12 6 23 -10.4993 -2.6115
-12 6 24 -1.3777 -4.2750
-12 6 25 -8.5942 -4.7771
-12 6 26 6.8500 -1.7701
-12 6 27 3.1965 -8.9454
-12 6 28 5.8701 -2.1515
-12 6 29 2.5626 -7.2934
-12 6 30 0.1786 -5.1542
-12 8 1 18.2686 0.4222
-12 8 2 -10.5063 1.1809
-12 8 3 20.6378 -0.0533
-12 8 4 -3.3658 -2.4920
-12 8 5 3.8817 1.0159
-12 8 6 -1.9490 -2.4003
-12 8 7 -10.1052 1.0011
-12 8 8 -8.6936 -0.2852
-12 8 9 -1.3847 0.7933
-12 8 10 -9.5745 -0.5909
-12 8 11 13.1197 2.1186
-12 8 12 5.7334 -1.6645
-12 8 13 14.7763 2.3118
-12 8 14 19.8891 -0.0571
-12 8 15 5.3443 0.6990
-12 8 16 9.4902 0.7828
-12 8 17 -5.5727 -0.6548
-12 8 18 -12.9703 -0.1059
-12 8 19 -7.4470 -1.5266
-12 8 20 -18.0232 1.3630
-12 8 21 -2.1023 -0.4987
-12 8 22 -5.2125 1.3816
-12 8 23 -2.9071 3.2783
-12 8 24 7.3504 -5.3169
-12 8 25 -8.1417 5.6631
-12 8 26 13.0277 -12.4760
-12 8 27 -6.3150 4.4775
-12 10 1 -15.4601 -0.4646
-12 10 2 5.1410 -2.7230
-12 10 3 -17.7302 -0.9197
-12 10 4 0.3360 -1.4413
-12 10 5 -10.5637 0.0936
-12 10 6 1.7213 1.5478
-12 10 7 -3.3219 0.8427
-12 10 8 1.9050 1.3851
-12 10 9 1.7995 0.7784
-12 10 10 -3.8535 -1.9725
-12 10 11 1.9826 0.9707
-12 10 12 -3.9501 -2.4790
-12 10 13 -1.1365 0.3708
-12 10 14 3.6088 0.1333
-12 10 15 -2.3690 0.6514
-12 10 16 2.8468 1.5350
-12 10 17 -3.9003 3.4771
-12 10 18 -5.1330 0.8237
-12 10 19 -4.3746 4.5399
-12 10 20 -2.6968 -3.5985
-12 10 21 2.5378 0.5022
-12 10 22 6.9552 -10.7399
-12 10 23 9.9814 -5.8260
-12 10 24 8.4236 -10.9295
-12 12 1 1.0444 1.2053
-12 12 2 9.0625 -0.4132
-12 12 3 -8.3594 -4.8352
-12 12 4 -4.4232 -4.6273
-12 12 5 -11.9774 -2.9577
-12 12 6 -7.6795 -4.7308
-12 12 7 -12.8714 -1.7820
-12 12 8 2.9678 -0.1159
-12 12 9 -9.0436 -4.1427
-12 12 10 11.0139 1.4619
-12 12 11 -3.3557 -4.6198
-12 12 12 6.6706 0.5737
-12 12 13 -3.4716 -2.2211
-12 12 14 -2.8648 -0.2710
-12 12 15 -4.8323 3.2060
-12 12 16 -8.3553 -3.5943
-12 12 17 -0.9221 7.0365
-11 1 1 25.6522 -1.8432
-11 1 2 -31.8181 -4.6114
-11 1 3 27.2839 -6.0389
-11 1 4 -47.7600 -2.2080
-11 1 5 1.2687 -4.4345
-11 1 6 -21.5799 10.1467
-11 1 7 5.8709 -0.6802
-11 1 8 15.5812 13.2618
-11 1 9 32.5435 3.2324
-11 1 10 18.2487 7.0843
-11 1 11 26.0218 7.2149
-11 1 12 2.4059 3.7957
-11 1 13 -8.4875 10.6663
-11 1 14 -2.5160 1.7412
-11 1 15 -18.6266 11.2815
-11 1 16 -8.4167 -2.0868
-11 1 17 5.9374 9.4319
-11 1 18 -24.3074 -5.7976
-11 1 19 25.2345 7.2907
-11 1 20 -23.5604 -9.9127
-11 1 21 14.8229 3.1845
-11 1 22 6.2460 -12.3323
-11 1 23 -4.8441 -2.3929
-11 1 24 31.2811 -11.1218
-11 1 25 -9.7520 -5.4035
-11 1 26 20.6495 -8.4109
-11 1 27 -5.0763 -6.9492
-11 1 28 -6.4936 -4.4914
-11 1 29 -1.9562 -6.1062
-11 1 30 -14.2207 -2.8331
-11 1 31 0.6648 1.6918
-11 1 32 -3.8937 -7.0615
-11 1 33 2.4934 8.8189
-11 3 1 9.8687 -0.9836
-11 3 2 -0.0340 -1.1246
-11 3 3 -6.0324 0.8161
-11 3 4 13.2010 -1.7435
-11 3 5 -40.1156 1.6909
-11 3 6 8.7238 -3.1873
-11 3 7 -13.8875 2.1847
-11 3 8 5.4230 -4.5793
-11 3 9 42.7061 1.0043
-11 3 10 21.5044 -2.9652
-11 3 11 42.7550 -0.2339
-11 3 12 25.8175 -1.2294
-11 3 13 -10.5493 0.1749
-11 3 14 -0.9712 -1.4613
-11 3 15 -42.9230 0.0759
-11 3 16 -19.7367 -0.0406
-11 3 17 -23.8830 0.1187
-11 3 18 -4.6778 1.8654
-11 3 19 4.3899 1.2860
-11 3 20 11.4617 2.0971
-11 3 21 -0.1736 0.1355
-11 3 22 5.9631 4.0024
-11 3 23 -20.3204 -0.6536
-11 3 24 -0.1881 6.5066
-11 3 25 -21.2843 2.2723
-11 3 26 2.2311 5.8739
-11 3 27 -8.7135 1.9790
-11 3 28 -0.0954 3.6403
-11 3 29 -1.0588 0.3859
-11 3 30 -3.0782 0.3057
-11 3 31 2.2338 6.1886
-11 5 1 6.5233 -1.3104
-11 5 2 -1.6893 1.8192
-11 5 3 11.8839 -1.3178
-11 5 4 4.5910 2.4872
-11 5 5 39.5581 -0.7288
-11 5 6 -16.3539 0.2686
-11 5 7 46.3481 1.1945
-11 5 8 -30.2002 -2.4639
-11 5 9 13.3674 1.4420
-11 5 10 -5.1386 -3.1233
-11 5 11 -12.0876 -0.0237
-11 5 12 18.6659 -3.5056
-11 5 13 -3.0333 -0.1601
-11 5 14 6.2378 -2.4936
-11 5 15 8.7541 0.4672
-11 5 16 -10.2075 0.2008
-11 5 17 8.0602 1.4009
-11 5 18 -1.4873 1.0857
-11 5 19 14.3170 2.6914
-11 5 20 9.4210 1.8430
-11 5 21 22.2340 1.9789
-11 5 22 1.6064 3.7075
-11 5 23 11.8607 0.7670
-11 5 24 -9.9779 3.4109
-11 5 25 -3.5747 0.9037
-11 5 26 -11.0070 4.1489
-11 5 27 -3.7458 -0.0177
-11 5 28 -6.9087 6.4385
-11 5 29 2.8698 2.4846
-11 7 1 -27.2718 -1.1143
-11 7 2 -5.4207 -2.5207
-11 7 3 -10.3724 0.2809
-11 7 4 3.8266 -0.8713
-11 7 5 18.4773 0.2585
-11 7 6 11.4148 0.3520
-11 7 7 9.8581 -0.1529
-11 7 8 7.0505 0.5207
-11 7 9 -25.5361 -0.8626
-11 7 10 -4.3726 0.0033
-11 7 11 -36.9141 -1.5326
-11 7 12 -13.5341 -1.6379
-11 7 13 -19.6609 -2.7117
-11 7 14 -10.5973 -1.3517
-11 7 15 -6.6088 -4.1696
-11 7 16 2.1589 1.8251
-11 7 17 -6.9512 -2.6603
-11 7 18 6.9520 1.5279
-11 7 19 -3.8934 -0.2919
-11 7 20 -2.5494 -2.6339
-11 7 21 5.8844 -2.3832
-11 7 22 -12.1728 -4.0339
-11 7 23 6.8131 -2.9965
-11 7 24 -11.7447 -2.0870
-11 7 25 -2.8087 4.7260
-11 7 26 -5.0986 1.1508
-11 7 27 -6.8019 11.3134
-11 7 28 0.9817 4.4640
-11 7 29 -2.4289 7.3702
-11 9 1 -8.3485 1.3475
-11 9 2 10.6171 3.5826
-11 9 3 -7.5240 0.3279
-11 9 4 -2.3839 1.9261
-11 9 5 -2.3066 0.3477
-11 9 6 -4.5261 -0.0246
-11 9 7 -1.7751 1.2708
-11 9 8 0.2072 0.0365
-11 9 9 -5.7284 -0.2639
-11 9 10 -3.4789 1.6223
-11 9 11 -7.6916 -1.9336
-11 9 12 -11.5112 1.3192
-11 9 13 -5.3217 0.0242
-11 9 14 -4.3739 -0.8312
-11 9 15 2.0913 2.1143
-11 9 16 11.0189 -2.0861
-11 9 17 5.3280 0.8897
-11 9 18 7.6391 -1.8085
-11 9 19 -5.4315 -1.0124
-11 9 20 -10.1738 0.5942
-11 9 21 -16.2848 -1.4538
-11 9 22 -15.6831 4.4627
-11 9 23 -11.7307 -2.7113
-11 9 24 -7.6285 5.2730
-11 9 25 -2.3503 -6.1241
-11 11 1 8.3816 -4.6359
-11 11 2 -4.4860 -0.2747
-11 11 3 4.4010 -1.7873
-11 11 4 -0.4518 -1.0013
-11 11 5 -0.1554 0.1815
-11 11 6 -7.4016 -1.0056
-11 11 7 -1.5972 0.6182
-11 11 8 -11.5746 0.8285
-11 11 9 -4.3048 -1.7512
-11 11 10 -7.8866 1.4663
-11 11 11 -2.4285 -3.0664
-11 11 12 -2.3800 -0.5512
-11 11 13 6.2844 -0.7884
-11 11 14 4.1982 -0.0877
-11 11 15 12.7772 1.7636
-11 11 16 8.4982 3.7373
-11 11 17 10.8553 2.8374
-11 11 18 2.1901 7.1221
-11 11 19 2.7284 -0.2543
-11 11 20 -7.3553 8.8323
-11 11 21 -4.6840 -8.8967
-11 13 1 14.2904 7.4943
-11 13 2 -2.9034 -0.2025
-11 13 3 10.3198 -4.6610
-11 13 4 -1.0497 3.7650
-11 13 5 0.0789 -8.1822
-11 13 6 -7.4819 5.5169
-11 13 7 -5.2409 -0.1592
-11 13 8 -12.3061 2.9700
-11 13 9 -4.5347 1.0835
-11 13 10 -6.2034 0.0685
-11 13 11 -0.8846 -5.9740
-11 13 12 4.9639 -4.4487
-11 13 13 1.8742 -8.2559
-11 13 14 8.8491 -8.4278
-10 0 2 34.2062 29.7000
-10 0 4 7.4591 7.0229
-10 0 6 -26.8808 -15.4740
-10 0 8 -12.8341 -18.5326
-10 0 10 11.3730 -15.8044
-10 0 12 -8.4019 -14.2041
-10 0 14 -33.9055 -8.4212
-10 0 16 -15.0922 -0.8887
-10 0 18 12.5700 5.4595
-10 0 20 1.4584 11.1230
-10 0 22 -21.5055 14.5007
-10 0 24 -11.6693 15.2746
-10 0 26 13.1840 12.6198
-10 0 28 9.8077 6.5872
-10 0 30 -14.3146 3.5322
-10 2 1 -8.2868 -3.7273
-10 2 2 35.4570 -1.4006
-10 2 3 70.1350 -1.2678
-10 2 4 44.9709 -2.3710
-10 2 5 83.0503 2.7829
-10 2 6 45.0738 0.2762
-10 2 7 14.7298 5.1265
-10 2 8 32.0391 4.6848
-10 2 9 -18.2853 1.8187
-10 2 10 15.0723 4.8666
-10 2 11 16.9674 -5.4591
-10 2 12 6.9183 3.5035
-10 2 13 36.8198 -9.0683
-10 2 14 6.6368 2.3759
-10 2 15 5.9675 -7.5494
-10 2 16 4.4694 -0.3776
-10 2 17 -20.4179 -6.9163
-10 2 18 0.4966 -2.4683
-10 2 19 -5.0978 -7.1588
-10 2 20 0.1356 -3.4541
-10 2 21 20.8867 -5.6696
-10 2 22 2.2664 -5.0426
-10 2 23 21.9511 -4.1012
-10 2 24 7.9041 -6.0452
-10 2 25 9.4747 0.6120
-10 2 26 17.3882 -6.8734
-10 2 27 5.6380 7.5637
-10 2 28 17.4783 -5.3192
-10 2 29 5.9446 4.7987
-10 2 30 3.3661 3.5757
-10 2 31 3.2966 -3.7519
-10 2 32 -5.5824 11.9446
-10 4 1 -15.9928 2.9783
-10 4 2 -44.2774 2.5580
-10 4 3 12.0677 0.1426
-10 4 4 -34.4743 1.8010
-10 4 5 16.7883 -1.5121
-10 4 6 -12.4921 0.8407
-10 4 7 2.0697 -0.5547
-10 4 8 -21.4560 -0.4800
-10 4 9 -0.9873 1.0768
-10 4 10 -31.1312 0.6770
-10 4 11 5.8534 -0.0006
-10 4 12 -6.0142 2.9740
-10 4 13 5.4844 -1.3923
-10 4 14 15.8526 1.6929
-10 4 15 -4.1631 -0.4742
-10 4 16 -0.3437 -0.3991
-10 4 17 -15.4754 -0.4727
-10 4 18 -18.4575 -0.0186
-10 4 19 -17.3046 -1.8802
-10 4 20 -7.3023 -0.0702
-10 4 21 -7.2165 -2.0874
-10 4 22 4.3233 -0.0048
-10 4 23 0.5339 -0.3421
-10 4 24 -6.5213 1.4657
-10 4 25 -0.9867 4.7533
-10 4 26 -18.0920 1.4505
-10 4 27 -2.6890 7.5260
-10 4 28 -14.1765 1.3604
-10 4 29 -1.5243 -0.7484
-10 4 30 -6.2752 1.8975
-10 4 31 -0.2506 -8.9391
-10 6 1 11.9989 0.3128
-10 6 2 1.2319 -1.1281
-10 6 3 -23.1285 1.1550
-10 6 4 6.2456 1.0938
-10 6 5 -31.8259 1.3146
-10 6 6 16.9817 4.0642
-10 6 7 1.1211 -0.0181
-10 6 8 8.5789 3.9666
-10 6 9 16.1600 -1.0235
-10 6 10 -4.7344 2.7767
-10 6 11 -8.0745 -0.6799
-10 6 12 0.2720 2.7478
-10 6 13 -24.5883 1.1254
-10 6 14 8.6515 1.9144
-10 6 15 -15.1653 2.0589
-10 6 16 3.4441 0.4605
-10 6 17 -10.5198 1.0475
-10 6 18 -2.1902 -1.2404
-10 6 19 -14.6923 2.1035
-10 6 20 2.1336 -3.4406
-10 6 21 -2.0915 3.9912
-10 6 22 5.5974 -3.4453
-10 6 23 19.2195 0.1451
-10 6 24 0.5304 -3.7163
-10 6 25 19.3910 -5.4954
-10 6 26 -6.5131 -7.2285
-10 6 27 4.0566 -5.3408
-10 6 28 -7.9526 -4.9194
-10 6 29 -1.7466 -2.8984
-10 6 30 -3.8306 5.2929
-10 8 1 -3.8866 0.5737
-10 8 2 10.8254 -1.8581
-10 8 3 -13.6535 0.8396
-10 8 4 4.1673 0.5120
-10 8 5 -9.5092 -0.2787
-10 8 6 -8.3439 0.9271
-10 8 7 6.4242 -0.6114
-10 8 8 -7.8366 -0.3673
-10 8 9 10.1425 0.4115
-10 8 10 2.4535 -0.4046
-10 8 11 0.3244 1.2514
-10 8 12 3.1851 1.3422
-10 8 13 -6.4367 2.3633
-10 8 14 -8.1346 0.4948
-10 8 15 -2.7982 2.9004
-10 8 16 -9.8724 -1.6805
-10 8 17 7.2603 0.2678
-10 8 18 4.1629 -0.7105
-10 8 19 11.9710 -3.3526
-10 8 20 13.3687 0.8517
-10 8 21 5.2954 -3.8968
-10 8 22 9.4942 2.5535
-10 8 23 -1.8859 -1.8507
-10 8 24 3.8688 9.2918
-10 8 25 -1.9607 1.1923
-10 8 26 -0.2267 17.2376
-10 8 27 -1.4251 5.0077
-10 10 1 5.6325 -0.7198
-10 10 2 2.9850 0.5464
-10 10 3 4.9545 0.2081
-10 10 4 6.8099 0.7491
-10 10 5 -3.1928 0.3732
-10 10 6 1.4340 0.8503
-10 10 7 -5.5921 -0.2618
-10 10 8 -2.9230 -0.8095
-10 10 9 0.2256 0.8955
-10 10 10 1.5319 -2.5037
-10 10 11 2.7610 1.8199
-10 10 12 3.0591 -2.3171
-10 10 13 -2.9594 0.8732
-10 10 14 -2.1657 -1.1438
-10 10 15 -6.8305 -1.4323
-10 10 16 3.1645 -1.1337
-10 10 17 0.9865 -3.2890
-10 10 18 17.9541 -3.2080
-10 10 19 10.3888 -0.4998
-10 10 20 18.2034 -4.1702
-10 10 21 6.7130 7.3339
-10 10 22 3.9317 -1.6416
-10 10 23 -2.3459 13.5160
-10 10 24 -3.9549 -0.7015
-10 12 1 -1.6024 -6.5031
-10 12 2 -12.5773 0.8769
-10 12 3 3.7404 0.4298
-10 12 4 -1.8173 -1.3548
-10 12 5 2.2901 -0.0110
-10 12 6 6.9896 -2.9863
-10 12 7 1.4547 -1.4518
-10 12 8 0.4590 -3.9447
-10 12 9 4.6175 2.2190
-10 12 10 -9.3438 -1.1536
-10 12 11 5.1784 5.0448
-10 12 12 -8.2092 2.7784
-10 12 13 3.8539 4.2087
-10 12 14 0.8308 2.4080
-10 12 16 7.5085 0.8691
-10 12 17 -1.1595 -4.1880
-10 12 18 6.8228 1.9288
-10 12 19 -7.2474 -3.3572
-9 1 1 -10.3454 13.9369
-9 1 2 43.9624 1.7420
-9 1 3 -49.8702 4.3209
-9 1 4 15.5797 8.2823
-9 1 5 -26.1524 -7.8475
-9 1 6 -29.8475 5.4262
-9 1 7 -8.8111 -12.6287
-9 1 8 -46.6269 3.6289
-9 1 9 -33.8943 -7.5357
-9 1 10 -7.7402 8.4579
-9 1 11 -47.1536 0.3734
-9 1 12 33.7484 11.0224
-9 1 13 -18.8385 4.7818
-9 1 14 24.3550 9.4147
-9 1 15 10.8930 7.4285
-9 1 16 -6.4389 6.8912
-9 1 17 12.5720 9.4153
-9 1 18 -7.9850 3.5232
-9 1 19 3.7004 8.2074
-9 1 20 9.3939 -0.3546
-9 1 21 2.6430 6.6679
-9 1 22 6.8546 -5.2942
-9 1 23 2.0431 6.1790
-9 1 24 -14.0371 -9.8237
-9 1 25 -6.7608 1.5109
-9 1 26 -19.3427 -10.3043
-9 1 27 -15.5904 -4.4788
-9 1 28 -3.3373 -9.5483
-9 1 29 -15.5551 -6.2950
-9 1 30 4.2377 -8.7975
-9 1 31 -9.5865 -8.6651
-9 3 1 -30.5872 -5.2028
-9 3 2 37.6818 -2.5071
-9 3 3 -47.7976 -1.2777
-9 3 4 14.6401 -0.6748
-9 3 5 22.5362 1.6513
-9 3 6 11.1927 -1.8143
-9 3 7 64.4186 1.6316
-9 3 8 13.0196 -3.4747
-9 3 9 25.3874 0.9232
-9 3 10 -11.6904 -4.7916
-9 3 11 -15.0225 0.3263
-9 3 12 -36.6039 -4.6137
-9 3 13 -6.8435 -0.7184
-9 3 14 -23.4963 -3.3090
-9 3 15 8.5276 -0.0956
-9 3 16 4.0907 -3.2391
-9 3 17 -0.5982 1.3391
-9 3 18 6.8916 -1.9617
-9 3 19 -10.2328 0.6270
-9 3 20 -2.6296 2.0014
-9 3 21 1.6553 0.1177
-9 3 22 0.4725 3.7195
-9 3 23 17.7454 -0.3976
-9 3 24 5.1979 2.6082
-9 3 25 16.6508 -2.6041
-9 3 26 0.3193 1.8482
-9 3 27 7.4318 0.8687
-9 3 28 -1.8238 0.4588
-9 3 29 4.5802 7.9509
-9 3 30 1.5121 -0.2773
-9 3 31 3.6590 3.8593
-9 5 1 -16.0484 2.7773
-9 5 2 -27.4325 2.6716
-9 5 3 -27.4780 1.6830
-9 5 4 -32.6190 0.6259
-9 5 5 -39.2096 -0.2749
-9 5 6 -6.5728 -0.2200
-9 5 7 -34.1269 -1.8207
-9 5 8 17.5468 -0.3246
-9 5 9 -5.6344 -1.2305
-9 5 10 0.0164 -1.3401
-9 5 11 10.4736 0.3251
-9 5 12 -21.4754 -1.4519
-9 5 13 -4.1993 0.1370
-9 5 14 -2.0979 -1.4368
-9 5 15 -17.2120 -0.2650
-9 5 16 25.5468 -2.2725
-9 5 17 -9.2042 0.2091
-9 5 18 16.6962 -1.2578
-9 5 19 -2.4836 -0.0889
-9 5 20 -9.4951 0.1862
-9 5 21 -5.8888 0.4930
-9 5 22 -15.1006 1.0740
-9 5 23 -2.7659 2.2723
-9 5 24 -2.2015 5.1116
-9 5 25 5.2431 1.7996
-9 5 26 7.1827 7.2013
-9 5 27 4.0006 -0.7357
-9 5 28 6.4219 2.0437
-9 5 29 -1.7861 -6.1396
-9 5 31 -2.6515 -15.0554
-9 7 1 22.8627 -1.7790
-9 7 2 -2.9192 -0.4869
-9 7 3 15.4035 -0.1972
-9 7 4 8.8544 -1.8948
-9 7 5 -16.1275 2.0049
-9 7 6 12.4052 -2.7668
-9 7 7 -21.2696 2.6036
-9 7 8 5.9327 -1.8851
-9 7 9 9.9102 1.5966
-9 7 10 -6.2762 -1.5162
-9 7 11 27.3990 0.1863
-9 7 12 -11.6606 -0.9795
-9 7 13 12.8669 -0.2712
-9 7 14 -7.3918 0.4854
-9 7 15 -1.7049 0.7462
-9 7 16 -4.2663 0.5533
-9 7 17 0.2418 0.2487
-9 7 18 -2.6796 0.7420
-9 7 19 2.9996 -2.3601
-9 7 20 3.9539 1.5768
-9 7 21 -2.3235 -1.5082
-9 7 22 9.7679 -1.1816
-9 7 23 -5.6952 2.1034
-9 7 24 8.3961 -5.8201
-9 7 25 -2.7526 0.0209
-9 7 26 4.7769 -7.3599
-9 7 27 -1.5024 -5.8675
-9 7 28 2.4604 -6.6991
-9 7 29 -3.6758 -5.0226
-9 9 1 -1.7847 1.7928
-9 9 2 -0.5216 1.2392
-9 9 3 1.4557 -0.0203
-9 9 4 17.2636 -0.9828
-9 9 5 -1.5309 -2.1817
-9 9 6 20.1231 -2.6238
-9 9 7 -6.8057 -3.3113
-9 9 8 9.2450 -0.5877
-9 9 9 -4.2106 -1.2433
-9 9 10 5.8878 1.8768
-9 9 11 7.1525 2.0418
-9 9 12 14.1271 2.6332
-9 9 13 14.2048 1.8358
-9 9 14 12.1073 2.5041
-9 9 15 3.3078 -0.2488
-9 9 16 -4.8817 0.7586
-9 9 17 -13.6635 0.1292
-9 9 18 -10.7846 -1.4577
-9 9 19 -11.4233 1.7095
-9 9 20 0.6275 -1.2486
-9 9 21 4.9331 1.9390
-9 9 22 5.1606 0.6388
-9 9 23 11.0714 2.3753
-9 9 24 -2.3074 2.3837
-9 9 25 6.5969 3.4979
-9 9 26 -5.5989 4.3296
-9 11 1 3.7848 2.8688
-9 11 2 -1.1433 2.5343
-9 11 3 5.1786 0.6670
-9 11 4 -0.3536 1.5152
-9 11 5 5.7691 1.1668
-9 11 6 7.6546 0.6024
-9 11 7 -2.3203 0.0226
-9 11 8 10.5064 0.4241
-9 11 9 -5.0458 -1.6436
-9 11 10 4.8956 0.0551
-9 11 11 2.4715 -1.4488
-9 11 12 -0.4525 0.5075
-9 11 13 4.8218 -0.6029
-9 11 14 -4.9653 1.3200
-9 11 15 -1.9223 0.2467
-9 11 16 -7.5509 1.9605
-9 11 17 -2.4720 -0.7430
-9 11 18 1.3673 2.1719
-9 11 19 8.2013 -2.9077
-9 11 20 15.5210 0.0059
-9 11 21 15.2259 -1.0354
-9 11 22 16.1228 -1.9282
-9 13 1 -4.0616 -5.5821
-9 13 2 10.8040 2.2184
-9 13 3 -7.1686 -0.0127
-9 13 4 1.7627 1.7888
-9 13 5 -0.3849 1.7255
-9 13 6 1.6782 -2.3740
-9 13 7 5.0186 -4.3705
-9 13 8 6.3905 -2.7726
-9 13 9 3.3059 -3.6334
-9 13 10 3.3936 -1.1948
-9 13 11 -1.8754 5.3916
-9 13 12 -5.3708 0.3932
-9 13 13 -6.2631 7.7786
-9 13 14 -9.0750 2.0227
-9 13 15 -5.6723 1.1248
-8 0 2 12.9379 -13.5946
-8 0 4 61.6114 -4.3393
-8 0 6 82.9608 5.3118
-8 0 8 28.7366 -0.3681
-8 0 10 -27.7581 -11.9329
-8 0 12 -0.6257 -17.1588
-8 0 14 59.1741 -17.6492
-8 0 16 54.9482 -14.8518
-8 0 18 2.2334 -8.9574
-8 0 20 -18.9581 -2.3575
-8 0 22 3.0619 4.1459
-8 0 24 16.8532 9.5605
-8 0 26 5.6574 13.3533
-8 0 28 5.4793 14.0268
-8 0 30 26.6356 5.7030
-8 2 1 39.9309 -0.4060
-8 2 2 -5.4313 0.6097
-8 2 3 -63.7159 3.9049
-8 2 4 -21.0317 -3.0172
-8 2 5 -141.2802 7.0992
-8 2 6 -57.8710 -1.4724
-8 2 7 -89.3506 6.3466
-8 2 8 -84.8832 0.1150
-8 2 9 -4.1628 4.3478
-8 2 10 -72.8950 1.8109
-8 2 11 12.7863 4.2453
-8 2 12 -28.8078 3.0786
-8 2 13 -2.3974 2.7038
-8 2 14 12.6774 3.7295
-8 2 15 1.9380 -2.1241
-8 2 16 25.7770 4.7053
-8 2 17 5.3859 -5.5080
-8 2 18 11.4517 4.0238
-8 2 19 -10.0057 -7.4281
-8 2 20 -10.3921 1.6873
-8 2 21 -18.3210 -10.4066
-8 2 22 -19.0176 -0.6291
-8 2 23 -4.3439 -10.5476
-8 2 24 -15.5697 -3.7454
-8 2 25 9.7245 -9.0633
-8 2 26 -16.3078 -5.2144
-8 2 27 6.0297 -9.2920
-8 2 28 -18.5251 -3.5763
-8 2 29 -3.4855 -2.8513
-8 2 30 -9.0938 -4.7294
-8 2 31 -5.6827 8.2625
-8 4 1 74.1425 0.3262
-8 4 2 24.3095 0.6541
-8 4 3 24.3478 1.0734
-8 4 4 19.5746 1.7611
-8 4 5 -25.6408 0.0335
-8 4 6 0.8042 1.5397
-8 4 7 -26.2447 -1.1593
-8 4 8 18.5683 0.8681
-8 4 9 -5.6148 -0.8608
-8 4 10 40.1124 -0.8378
-8 4 11 1.2631 1.3458
-8 4 12 12.3071 -1.8881
-8 4 13 -1.7542 1.9720
-8 4 14 -29.8795 0.2814
-8 4 15 -1.0690 -1.3583
-8 4 16 -27.1735 1.5710
-8 4 17 4.8472 -3.9817
-8 4 18 1.6130 -0.8013
-8 4 19 10.0394 -2.7155
-8 4 20 8.1363 -2.5877
-8 4 21 9.3520 -0.2217
-8 4 22 -1.9445 -3.3356
-8 4 23 5.2552 0.9607
-8 4 24 0.5854 -3.9227
-8 4 25 1.6214 -1.6050
-8 4 26 11.9564 -1.0042
-8 4 27 -2.4475 -4.4933
-8 4 28 13.4772 1.7461
-8 4 29 -4.4325 2.1190
-8 4 30 4.8596 -1.3220
-8 4 31 -1.8945 11.9962
-8 6 1 -23.3607 2.6176
-8 6 2 9.0536 0.6327
-8 6 3 -5.9168 1.0801
-8 6 4 -0.1107 0.8183
-8 6 5 7.2397 -0.7880
-8 6 6 -8.2525 0.5886
-8 6 7 -8.6512 -1.4981
-8 6 8 5.1380 1.8324
-8 6 9 -9.3501 -1.0531
-8 6 10 20.2043 3.2779
-8 6 11 24.6639 -0.0986
-8 6 12 8.0352 2.5546
-8 6 13 43.5343 -0.5776
-8 6 14 -11.2616 1.7755
-8 6 15 21.9101 -2.0818
-8 6 16 -6.9898 1.8207
-8 6 17 -2.6378 -0.8808
-8 6 18 8.7432 2.0045
-8 6 19 -6.8749 1.6747
-8 6 20 12.5325 2.6323
-8 6 21 -10.1606 1.3533
-8 6 22 6.9258 0.9157
-8 6 23 -18.3453 0.4994
-8 6 24 3.3980 -2.0318
-8 6 25 -14.2088 0.8711
-8 6 26 4.4100 -0.0075
-8 6 27 -0.6323 -1.2472
-8 6 28 6.8193 2.1025
-8 6 29 4.9827 -4.2185
-8 6 30 6.4625 -3.2995
-8 8 1 -2.7436 -4.4637
-8 8 2 -18.5621 -2.0259
-8 8 3 11.8417 -3.0357
-8 8 4 -15.3863 -0.8270
-8 8 5 21.4111 -0.2931
-8 8 6 6.5157 -0.5799
-8 8 7 8.3701 1.0948
-8 8 8 16.9068 -0.6733
-8 8 9 -8.3636 -0.3412
-8 8 10 7.0943 0.0401
-8 8 11 -9.5094 -1.9293
-8 8 12 -5.4535 -0.9517
-8 8 13 1.9624 -1.6042
-8 8 14 -4.7144 -1.9131
-8 8 15 14.4591 -0.0209
-8 8 16 0.5592 -0.8553
-8 8 17 16.9502 2.1524
-8 8 18 -2.4512 -0.6345
-8 8 19 9.6984 2.5720
-8 8 20 -5.1097 0.2226
-8 8 21 4.9849 -1.5706
-8 8 22 -0.2932 3.4537
-8 8 23 6.1299 -6.5576
-8 8 24 1.2847 2.9737
-8 8 25 5.7595 -6.0081
-8 8 26 -3.0295 -2.1324
-8 8 27 2.9731 -2.4206
-8 10 1 2.8294 2.8770
-8 10 2 -17.1062 -0.6786
-8 10 3 -3.5941 1.7453
-8 10 4 -17.3111 0.9379
-8 10 5 3.6677 -0.6803
-8 10 6 -2.7253 0.6956
-8 10 7 14.1309 -0.0496
-8 10 8 8.6049 -0.0537
-8 10 9 6.7329 0.9583
-8 10 10 2.0033 -0.4129
-8 10 11 -8.5794 0.1154
-8 10 12 -7.8334 -1.8541
-8 10 13 -8.0927 -2.5634
-8 10 14 -5.5307 -3.4525
-8 10 15 2.4789 -5.0503
-8 10 16 -6.3812 -2.3968
-8 10 17 0.0659 -3.5857
-8 10 18 -19.9318 1.3513
-8 10 19 -11.5400 1.0316
-8 10 20 -24.7228 3.6554
-8 10 21 -12.1948 3.3860
-8 10 22 -12.6193 1.3999
-8 10 23 -5.5518 1.0406
-8 12 1 -8.5611 5.4884
-8 12 2 7.5879 -1.5138
-8 12 3 -7.2399 -2.7516
-8 12 4 4.2078 1.6202
-8 12 5 1.0954 -2.3037
-8 12 6 -4.5853 1.8578
-8 12 7 7.9878 3.0260
-8 12 8 -1.8940 0.1315
-8 12 9 3.2401 2.9876
-8 12 10 6.4417 -0.8664
-8 12 11 -3.4616 0.3955
-8 12 12 6.9191 -0.2212
-8 12 13 -4.1000 -0.4429
-8 12 14 0.1420 1.3176
-8 12 15 -5.7637 0.5082
-8 12 16 -6.4747 0.6598
-8 12 17 -8.5891 3.5748
-8 12 18 -7.8490 -1.6710
-8 12 19 -3.8610 5.2142
-8 14 1 -2.8657 3.1502
-8 14 2 1.5411 -0.4871
-8 14 3 -1.9166 0.2381
-8 14 4 6.3744 2.5558
-8 14 5 -3.8594 3.6798
-8 14 6 10.0692 -2.7195
-8 14 7 0.5797 4.9831
-8 14 8 13.8019 -11.2673
-8 14 9 5.9988 -0.6575
-7 1 1 1.9873 4.2397
-7 1 2 -88.9856 3.2797
-7 1 3 68.9722 0.3252
-7 1 4 -52.2123 -2.2028
-7 1 5 59.4156 -4.8794
-7 1 6 29.6045 -2.8026
-7 1 7 19.0997 -8.3619
-7 1 8 74.7785 1.9693
-7 1 9 15.9562 -10.5180
-7 1 10 23.7600 5.0968
-7 1 11 26.0852 -9.4527
-7 1 12 -52.9662 7.2124
-7 1 13 12.4888 -4.0237
-7 1 14 -53.9278 9.2768
-7 1 15 -1.4366 0.5473
-7 1 16 3.7197 9.8871
-7 1 17 5.8420 2.4387
-7 1 18 31.7213 9.0745
-7 1 19 12.9111 6.8221
-7 1 20 7.1090 6.9371
-7 1 21 4.2478 11.3393
-7 1 22 -18.7967 5.2095
-7 1 23 -3.9148 10.6473
-7 1 24 -11.2978 3.7700
-7 1 25 2.7212 8.7290
-7 1 26 4.9953 -1.0528
-7 1 27 15.2362 5.2358
-7 1 28 0.8757 -6.2444
-7 1 29 19.7098 -3.6453
-7 1 30 -5.8594 -6.9752
-7 3 1 12.7488 -3.6106
-7 3 2 -29.2662 -3.7032
-7 3 3 81.1993 -4.3052
-7 3 4 8.8227 -0.7747
-7 3 5 21.7873 -2.7878
-7 3 6 18.3870 0.9467
-7 3 7 -69.8339 -0.3172
-7 3 8 2.4251 0.7134
-7 3 9 -72.1053 0.3697
-7 3 10 6.7948 -0.8456
-7 3 11 -17.2320 -0.7770
-7 3 12 26.8207 -3.0826
-7 3 13 14.2700 -0.7918
-7 3 14 23.3838 -4.6553
-7 3 15 20.1096 0.5127
-7 3 16 1.6450 -3.6448
-7 3 17 22.4766 1.8080
-7 3 18 -3.3074 -2.5268
-7 3 19 12.0383 2.5140
-7 3 20 7.7522 -3.2097
-7 3 21 -12.4349 0.0059
-7 3 22 10.0066 -2.1136
-7 3 23 -25.0858 -3.4407
-7 3 24 4.6120 0.4449
-7 3 25 -13.9937 -1.9577
-7 3 26 5.8193 0.6445
-7 3 27 0.4824 -1.4458
-7 3 28 9.4390 0.1885
-7 3 29 1.6322 -5.8342
-7 3 30 7.7417 0.1912
-7 3 31 -0.7919 -2.9179
-7 5 1 1.3864 1.0113
-7 5 2 39.6688 -0.4786
-7 5 3 25.9134 -1.3721
-7 5 4 48.5204 -1.7468
-7 5 5 38.0526 -2.8483
-7 5 6 9.3072 -2.2920
-7 5 7 25.6876 -2.6460
-7 5 8 -35.4358 -1.8172
-7 5 9 -4.4677 -2.0022
-7 5 10 -21.4972 -0.5992
-7 5 11 -15.0845 -1.4209
-7 5 12 19.4142 -1.2384
-7 5 13 7.4220 0.5872
-7 5 14 17.9680 -2.3793
-7 5 15 26.5439 2.3200
-7 5 16 -13.4900 -1.7142
-7 5 17 15.4768 1.4918
-7 5 18 -19.3764 -1.8459
-7 5 19 -4.4269 1.1083
-7 5 20 2.7874 -1.5403
-7 5 21 -9.9243 2.5490
-7 5 22 17.0638 1.5900
-7 5 23 -7.8883 3.1661
-7 5 24 10.5135 1.6981
-7 5 25 -5.8156 3.1286
-7 5 26 -2.4178 -1.0353
-7 5 27 -1.0410 2.8446
-7 5 28 -7.5113 1.5395
-7 5 29 1.6401 2.4520
-7 5 30 -4.8487 5.2080
-7 7 1 16.8815 1.7194
-7 7 2 0.6828 0.2068
-7 7 3 6.6095 0.6801
-7 7 4 -16.0862 -0.5987
-7 7 5 21.2474 0.3235
-7 7 6 -22.2885 0.5024
-7 7 7 27.7172 1.4991
-7 7 8 -11.1447 -0.1129
-7 7 9 1.4117 2.8433
-7 7 10 9.1421 -1.1680
-7 7 11 -19.0990 2.8058
-7 7 12 19.0461 -1.3121
-7 7 13 -7.3989 2.2172
-7 7 14 8.4477 -1.5504
-7 7 15 9.8050 1.1900
-7 7 16 -7.0527 0.1132
-7 7 17 9.8858 -0.4981
-7 7 18 -13.2265 2.3873
-7 7 19 2.5808 -1.4163
-7 7 20 -14.4469 1.7289
-7 7 21 -1.8866 -2.9404
-7 7 22 -12.9640 0.8284
-7 7 23 -5.6860 -6.9005
-7 7 24 -6.4969 0.1541
-7 7 25 -7.2838 -7.3759
-7 7 26 -0.9144 -4.1685
-7 7 27 -2.4790 0.1274
-7 7 28 -0.0210 -7.9861
-7 9 1 -2.1668 -1.1737
-7 9 2 12.2721 -1.7641
-7 9 3 -3.4596 -0.2088
-7 9 4 -9.0676 -0.4256
-7 9 5 -3.9411 0.4430
-7 9 6 -18.5078 2.0777
-7 9 7 4.6761 1.1462
-7 9 8 -8.6985 0.0808
-7 9 9 15.2114 1.6207
-7 9 10 1.5921 -2.6775
-7 9 11 9.7285 0.8800
-7 9 12 -0.7531 -0.9484
-7 9 13 -10.4007 0.1563
-7 9 14 -3.3993 2.2136
-7 9 15 -18.7828 -0.1344
-7 9 16 5.5119 3.0422
-7 9 17 -5.3968 -0.9470
-7 9 18 10.7549 0.4733
-7 9 19 6.9944 -0.6950
-7 9 20 1.7529 -5.1839
-7 9 21 6.2307 1.7554
-7 9 22 -2.9071 -8.9832
-7 9 23 5.1873 2.6492
-7 9 24 5.4374 -6.6149
-7 9 25 6.2890 0.0366
-7 9 26 9.5408 -1.9607
-7 11 1 -2.1002 -1.7407
-7 11 2 -0.9437 -0.7573
-7 11 3 -2.8201 2.9015
-7 11 4 -8.3525 -0.3386
-7 11 5 -8.1310 4.4195
-7 11 6 -14.8771 1.4272
-7 11 7 -0.9477 3.9756
-7 11 8 -12.6861 2.4973
-7 11 9 9.1390 1.4968
-7 11 10 -3.3391 1.9831
-7 11 11 3.2345 -2.2150
-7 11 12 0.9875 -0.1182
-7 11 13 -4.4377 -2.0946
-7 11 14 2.0897 -1.5104
-7 11 15 4.4072 1.1549
-7 11 16 6.1475 -1.3783
-7 11 17 12.0654 1.8618
-7 11 18 2.9640 -1.1295
-7 11 19 -0.6770 -2.4498
-7 11 20 -9.3641 1.0141
-7 11 21 -15.8628 -9.3628
-7 13 1 -0.8133 1.1974
-7 13 2 -12.0677 -6.4311
-7 13 3 2.6560 -3.4805
-7 13 4 -2.9232 -6.2153
-7 13 5 -1.1406 -7.3600
-7 13 6 3.2137 0.5441
-7 13 7 -8.2421 -2.7564
-7 13 8 3.7470 3.5735
-7 13 9 -9.9570 2.1303
-7 13 10 6.4036 1.3148
-7 13 11 -7.4636 1.1019
-7 13 12 7.4898 0.2162
-7 13 13 -3.8346 -0.2835
-7 13 14 1.4242 1.7045
-7 13 15 -0.5036 0.0981
-6 0 2 -10.5963 -6.9085
-6 0 4 -55.0976 7.6720
-6 0 6 -97.7670 11.3558
-6 0 8 -39.7562 7.4500
-6 0 10 52.0133 0.2346
-6 0 12 38.5245 -8.6496
-6 0 14 -58.5304 -14.1311
-6 0 16 -99.5119 -15.6551
-6 0 18 -46.7692 -16.1334
-6 0 20 12.0789 -14.8105
-6 0 22 16.8108 -9.8784
-6 0 24 0.3796 -1.6817
-6 0 26 6.8262 5.5214
-6 0 28 15.6411 8.3763
-6 0 30 -4.6295 12.2644
-6 2 1 -93.7409 5.2888
-6 2 2 -1.7256 6.2131
-6 2 3 -22.2423 5.6439
-6 2 4 -12.4856 0.5439
-6 2 5 92.2382 6.3851
-6 2 6 12.7381 -4.1537
-6 2 7 99.0460 7.9618
-6 2 8 61.5122 -4.2861
-6 2 9 31.2359 9.3195
-6 2 10 85.9864 -1.2934
-6 2 11 -1.9190 8.2364
-6 2 12 57.9455 1.5839
-6 2 13 -1.3999 6.6431
-6 2 14 6.5295 2.1306
-6 2 15 -11.6508 6.0897
-6 2 16 -19.3974 0.4135
-6 2 17 -16.5797 2.6647
-6 2 18 -7.3399 0.4575
-6 2 19 1.6179 -2.8640
-6 2 20 16.8698 3.0621
-6 2 21 13.1974 -5.1553
-6 2 22 24.2106 4.3293
-6 2 23 -1.3381 -6.3928
-6 2 24 13.7312 3.5533
-6 2 25 -18.6789 -7.5458
-6 2 26 7.1979 1.2415
-6 2 27 -17.6730 -5.3256
-6 2 28 8.9949 -1.8835
-6 2 29 -8.5809 -7.2695
-6 2 30 3.6563 -0.2210
-6 4 1 -49.6662 -4.4565
-6 4 2 -31.4157 -2.0509
-6 4 3 -8.9861 -2.0475
-6 4 4 -20.5674 -0.7623
-6 4 5 54.8255 0.6498
-6 4 6 21.1061 0.2063
-6 4 7 64.3916 2.1066
-6 4 8 13.8442 0.1919
-6 4 9 22.4984 1.8841
-6 4 10 -26.8574 0.8880
-6 4 11 -15.2312 0.5600
-6 4 12 -24.9932 2.0031
-6 4 13 -22.3900 -0.5726
-6 4 14 13.8017 1.1428
-6 4 15 -8.9008 0.2927
-6 4 16 25.5411 0.6423
-6 4 17 8.5423 1.6739
-6 4 18 3.1888 1.8418
-6 4 19 15.9354 1.3256
-6 4 20 -11.1473 0.3723
-6 4 21 8.4095 0.3018
-6 4 22 -5.6435 -2.3334
-6 4 23 -5.1892 -0.6631
-6 4 24 -1.0960 -1.4318
-6 4 25 -10.7253 -0.3122
-6 4 26 -5.2050 -0.1944
-6 4 27 -2.8631 1.4471
-6 4 28 -7.0467 -0.5537
-6 4 29 7.0151 -2.6677
-6 4 30 -0.3686 1.2401
-6 6 1 9.8240 0.7112
-6 6 2 -17.4747 0.8193
-6 6 3 5.3459 1.4279
-6 6 4 2.0949 -0.4835
-6 6 5 -7.0516 0.7280
-6 6 6 19.6524 -1.3189
-6 6 7 7.3316 -0.6751
-6 6 8 6.5260 -1.7043
-6 6 9 16.9368 -1.0275
-6 6 10 -18.1580 -1.0904
-6 6 11 -7.8489 -1.1673
-6 6 12 -13.2570 1.5530
-6 6 13 -30.4309 -1.4085
-6 6 14 10.5561 3.2047
-6 6 15 -18.6058 0.2070
-6 6 16 14.0138 3.1903
-6 6 17 2.6144 1.8045
-6 6 18 -1.6747 3.9954
-6 6 19 8.7461 1.0548
-6 6 20 -10.2199 3.8574
-6 6 21 12.5056 1.9811
-6 6 22 -6.2488 2.3384
-6 6 23 20.0552 5.9262
-6 6 24 0.5099 0.8724
-6 6 25 15.7935 8.1232
-6 6 26 3.1805 -4.5475
-6 6 27 0.9717 9.1991
-6 6 28 0.2199 -12.3435
-6 6 29 -6.2551 11.9122
-6 8 1 -3.5781 -1.1308
-6 8 2 20.8216 1.0629
-6 8 3 -5.2371 -1.3706
-6 8 4 15.3835 1.4626
-6 8 5 -17.2203 -1.0829
-6 8 6 -11.8610 1.1144
-6 8 7 -17.5955 -1.4862
-6 8 8 -27.3098 1.2603
-6 8 9 -9.8886 -2.5433
-6 8 10 -19.5179 -0.5584
-6 8 11 -6.2525 -3.6376
-6 8 12 -0.0990 -1.1302
-6 8 13 -7.7969 -3.6826
-6 8 14 14.0813 0.3825
-6 8 15 -13.8653 -1.2280
-6 8 16 17.1127 0.2817
-6 8 17 -19.8880 1.6478
-6 8 18 14.3986 -0.1539
-6 8 19 -18.0691 1.5624
-6 8 20 5.4861 -0.6819
-6 8 21 -11.8245 1.0401
-6 8 22 -9.7198 -2.8633
-6 8 23 -8.7870 3.1812
-6 8 24 -16.7449 -0.6625
-6 8 25 -6.4896 3.2959
-6 8 26 -8.4428 7.6072
-6 8 27 -1.5335 -1.0055
-6 10 1 -1.1114 -0.4923
-6 10 2 12.6713 0.3564
-6 10 3 12.4969 -0.5593
-6 10 4 16.4123 -2.1189
-6 10 5 12.8879 0.2141
-6 10 6 2.5533 -2.0456
-6 10 7 -5.3768 -1.7207
-6 10 8 -10.9357 0.4707
-6 10 9 -8.9979 -3.1834
-6 10 10 -6.3067 2.3124
-6 10 11 9.6401 -1.7810
-6 10 12 4.2871 1.9663
-6 10 13 17.2196 0.6937
-6 10 14 -0.7484 0.0791
-6 10 15 3.1863 2.2439
-6 10 16 -9.8359 -0.6816
-6 10 17 -5.1025 1.9410
-6 10 18 -1.4591 1.5859
-6 10 19 0.8946 0.1856
-6 10 20 11.5669 4.5600
-6 10 21 1.8845 -2.1491
-6 10 22 10.7880 4.5528
-6 10 23 -2.5707 -3.8680
-6 10 24 5.7282 0.6178
-6 12 1 5.6891 -2.1268
-6 12 2 2.7230 4.1819
-6 12 3 4.9314 1.9995
-6 12 4 -2.0341 2.3473
-6 12 5 -1.7948 1.9308
-6 12 6 -0.5201 -0.0426
-6 12 7 -10.5851 -1.3809
-6 12 8 -2.4615 -1.3145
-6 12 9 -6.3345 -1.4821
-6 12 10 -2.6704 -2.1148
-6 12 11 5.8611 -0.4796
-6 12 12 6.7148 -2.4239
-6 12 13 8.9724 0.5273
-6 12 14 17.2001 -0.6656
-6 12 15 6.6456 4.7468
-6 12 16 19.8111 3.3939
-6 12 17 9.5800 8.8958
-6 12 18 15.1206 3.6704
-6 14 1 15.9435 -3.1656
-6 14 2 13.6388 -1.8597
-6 14 3 13.9017 2.9784
-6 14 4 5.5862 -5.4481
-6 14 5 18.0002 3.4905
-6 14 6 -7.5297 -3.3566
-6 14 10 -27.2490 13.0803
-5 1 1 34.5065 -14.3640
-5 1 2 86.9411 -8.3763
-5 1 3 -1.4757 -8.0434
-5 1 4 97.2166 -13.0412
-5 1 5 5.3764 -2.9180
-5 1 6 27.5624 -11.2858
-5 1 7 33.3521 -3.1740
-5 1 8 -62.1696 -7.3769
-5 1 9 18.1628 -6.0127
-5 1 10 -55.5601 -2.2675
-5 1 11 -19.8406 -8.7601
-5 1 12 28.0983 1.5496
-5 1 13 -27.8743 -11.3451
-5 1 14 63.9677 3.3653
-5 1 15 -16.8935 -10.1987
-5 1 16 19.0034 5.6230
-5 1 17 -17.3639 -4.3382
-5 1 18 -24.3306 8.7429
-5 1 19 -18.4715 -0.1439
-5 1 20 -12.7176 10.8985
-5 1 21 -4.6411 2.7364
-5 1 22 18.0362 9.0843
-5 1 23 10.1183 9.0510
-5 1 24 17.7391 4.1641
-5 1 25 11.1520 12.3510
-5 1 26 -3.0642 3.6164
-5 1 27 5.2134 9.3005
-5 1 28 -2.9377 9.0217
-5 1 29 2.1888 7.3240
-5 1 30 11.2682 12.9990
-5 3 1 29.3306 1.5707
-5 3 2 -14.1855 0.7642
-5 3 3 -65.0438 -0.8612
-5 3 4 -45.2295 2.7761
-5 3 5 -56.7227 -1.2712
-5 3 6 -40.7375 3.6872
-5 3 7 25.5318 -1.3310
-5 3 8 1.7088 3.0255
-5 3 9 62.6723 -1.8766
-5 3 10 23.3863 1.3176
-5 3 11 39.3251 -1.7446
-5 3 12 5.5794 0.0774
-5 3 13 14.2961 -0.9183
-5 3 14 -15.2419 0.0774
-5 3 15 -2.2994 -0.4101
-5 3 16 -17.8577 -0.7598
-5 3 17 -22.2354 -0.3883
-5 3 18 -15.3444 -2.5041
-5 3 19 -23.4836 -0.3167
-5 3 20 -15.1629 -3.0253
-5 3 21 3.6878 1.7468
-5 3 22 -9.7294 -3.1997
-5 3 23 25.3092 3.8264
-5 3 24 -1.7139 -3.2474
-5 3 25 15.6839 0.5004
-5 3 26 -1.2535 -1.0467
-5 3 27 -5.4975 -1.5310
-5 3 28 -5.6610 2.0651
-5 3 29 -10.0346 7.2660
-5 3 30 -7.1009 3.4823
-5 5 1 -26.3111 -1.8580
-5 5 2 11.3630 0.0205
-5 5 3 -39.7947 -0.7753
-5 5 4 -38.2640 1.7421
-5 5 5 -43.8454 -0.0238
-5 5 6 -30.7988 3.6578
-5 5 7 -29.4321 -0.6390
-5 5 8 16.3604 3.5718
-5 5 9 -1.4869 -1.9222
-5 5 10 19.6381 0.7216
-5 5 11 7.7542 -1.8613
-5 5 12 -17.1931 -1.0106
-5 5 13 -14.8759 -1.3532
-5 5 14 -21.2211 -1.0760
-5 5 15 -37.0536 -1.6841
-5 5 16 13.2818 -2.5029
-5 5 17 -28.8479 -1.3101
-5 5 18 29.3026 -2.8534
-5 5 19 -4.6654 -1.2893
-5 5 20 8.2864 -1.1250
-5 5 21 8.0155 -2.6492
-5 5 22 -18.3376 -1.2851
-5 5 23 7.8419 -1.2864
-5 5 24 -24.6455 -0.5057
-5 5 25 4.1324 2.3773
-5 5 26 -12.8744 4.0243
-5 5 27 -1.4661 2.3299
-5 5 28 -1.0312 5.2047
-5 5 29 -4.8708 -0.9715
-5 5 30 0.1735 1.0119
-5 7 1 -20.6716 1.3823
-5 7 2 -17.7058 2.3003
-5 7 3 2.4636 1.5643
-5 7 4 -1.1106 1.2343
-5 7 5 1.0168 2.4501
-5 7 6 15.3275 -1.5941
-5 7 7 -11.4934 1.9877
-5 7 8 19.8373 -0.8126
-5 7 9 -1.4587 0.8945
-5 7 10 9.6914 2.0664
-5 7 11 10.2507 1.5199
-5 7 12 -8.1223 2.0499
-5 7 13 -0.7066 1.9379
-5 7 14 -16.2323 0.1075
-5 7 15 -12.6274 0.1947
-5 7 16 -10.1505 -2.6443
-5 7 17 -6.2413 -0.4301
-5 7 18 0.7133 -3.6579
-5 7 19 3.7988 0.6349
-5 7 20 11.8364 0.1990
-5 7 21 5.3583 -0.4305
-5 7 22 18.2558 2.4254
-5 7 23 5.8960 -2.4823
-5 7 24 13.5048 -1.2121
-5 7 25 8.3779 -3.7507
-5 7 26 4.0193 -0.9859
-5 7 27 6.7645 -7.9845
-5 7 28 -0.1864 6.5307
-5 9 1 -3.4588 -0.9506
-5 9 2 -11.0013 0.5215
-5 9 3 -11.2891 -0.6387
-5 9 4 5.5185 1.7470
-5 9 5 -4.6791 -0.5591
-5 9 6 7.3634 0.5063
-5 9 7 -0.0275 0.5856
-5 9 8 -5.6300 0.1184
-5 9 9 -9.5936 1.9882
-5 9 10 -12.9430 0.4606
-5 9 11 -15.9104 3.2141
-5 9 12 -4.5549 -0.4274
-5 9 13 -1.5042 3.2193
-5 9 14 8.1064 -0.5951
-5 9 15 16.6609 0.4264
-5 9 16 9.2209 -0.9073
-5 9 17 15.2330 -3.7358
-5 9 18 4.2933 -3.0097
-5 9 19 2.8854 -5.1250
-5 9 20 6.9218 -2.6149
-5 9 21 -3.3111 -1.4186
-5 9 22 8.7615 1.2551
-5 9 23 -6.5839 6.4959
-5 9 24 -0.6768 2.8334
-5 11 1 -5.0968 0.3912
-5 11 2 4.8713 1.5529
-5 11 3 -6.5841 -0.5569
-5 11 4 14.8090 -0.1797
-5 11 5 5.1135 0.2592
-5 11 6 19.7316 -2.2506
-5 11 7 6.4607 0.3420
-5 11 8 11.2807 -2.4201
-5 11 9 -8.5642 -0.2280
-5 11 10 -5.8556 -0.2569
-5 11 11 -12.6392 0.4661
-5 11 12 -11.5755 2.1892
-5 11 13 -3.5037 -0.7799
-5 11 14 -3.8947 0.2440
-5 11 15 -5.8306 -4.3163
-5 11 16 0.5302 -4.7854
-5 11 17 -14.2601 -4.5628
-5 11 18 1.4847 -4.5841
-5 11 19 -4.2059 1.8566
-5 11 20 6.5466 0.5844
-5 11 21 13.9714 10.8228
-5 13 1 2.2389 -0.2943
-5 13 2 4.9788 -4.4231
-5 13 3 -4.7844 2.3054
-5 13 4 1.3127 -1.3052
-5 13 5 -8.6383 2.6198
-5 13 6 -1.8742 -0.6403
-5 13 7 -1.9154 -1.9973
-5 13 8 -2.3085 0.4252
-5 13 9 6.1745 -4.6549
-5 13 10 -7.7025 3.4302
-5 13 11 9.6069 -2.2521
-5 13 12 -10.7366 3.3409
-5 13 13 10.2717 -0.6251
-5 13 14 -3.9414 -0.7110
-5 13 15 7.3879 -1.4768
-4 0 2 -21.6149 15.0902
-4 0 4 -46.7110 19.4728
-4 0 6 31.3670 18.4376
-4 0 8 55.3197 15.4020
-4 0 10 -10.6976 10.7899
-4 0 12 -35.2585 6.7182
-4 0 14 29.7961 1.3143
-4 0 16 78.8876 -6.3118
-4 0 18 45.9459 -12.4453
-4 0 20 -9.6387 -15.5638
-4 0 22 -19.9396 -17.0665
-4 0 24 -3.7474 -16.4711
-4 0 26 -15.7058 -10.1711
-4 0 28 -44.6054 1.6546
-4 0 30 -35.7037 8.1499
-4 2 1 68.3405 7.3867
-4 2 2 15.7550 1.7554
-4 2 3 36.7638 1.6704
-4 2 4 30.1003 -0.6796
-4 2 5 -55.3194 -1.1866
-4 2 6 26.9336 -2.9176
-4 2 7 -80.7059 0.7253
-4 2 8 -17.0151 -3.4529
-4 2 9 -37.7387 4.7357
-4 2 10 -72.6453 -2.2505
-4 2 11 -13.6173 8.0882
-4 2 12 -80.7007 -0.8016
-4 2 13 -12.8422 8.7130
-4 2 14 -34.9114 -0.2436
-4 2 15 6.8422 6.9871
-4 2 16 9.9206 0.6514
-4 2 17 24.0674 6.9715
-4 2 18 14.8553 1.2890
-4 2 19 5.8783 7.7493
-4 2 20 -5.3619 0.9878
-4 2 21 -18.4178 3.5372
-4 2 22 -15.6216 2.2567
-4 2 23 -12.2428 -2.1897
-4 2 24 -5.6337 4.3114
-4 2 25 8.3839 -2.9983
-4 2 26 3.1672 2.7024
-4 2 27 12.7952 -0.9794
-4 2 28 -1.1880 -2.8973
-4 2 29 4.6933 5.8592
-4 2 30 -2.7392 -9.4163
-4 4 1 1.3460 -2.7992
-4 4 2 46.0306 -0.4183
-4 4 3 2.1888 -0.9702
-4 4 4 42.9768 0.8852
-4 4 5 -21.5104 -0.7768
-4 4 6 -18.7173 -0.0054
-4 4 7 -26.1222 -0.1439
-4 4 8 -33.6093 -1.0682
-4 4 9 -3.6545 1.7113
-4 4 10 16.6082 -1.2788
-4 4 11 12.2806 2.1330
-4 4 12 44.6190 -0.9566
-4 4 13 7.6906 0.9087
-4 4 14 18.8298 0.6680
-4 4 15 -2.9898 -0.5539
-4 4 16 -7.3334 1.9468
-4 4 17 -10.5588 -1.2931
-4 4 18 -3.4585 1.0166
-4 4 19 -13.3263 -0.6719
-4 4 20 8.2188 0.6892
-4 4 21 -7.4206 -0.1701
-4 4 22 8.9513 1.4157
-4 4 23 5.9547 -0.0911
-4 4 24 4.0481 0.5596
-4 4 25 16.2910 0.5697
-4 4 26 1.9590 0.8700
-4 4 27 14.0534 -0.6558
-4 4 28 3.1002 4.6344
-4 4 29 4.1476 -2.4631
-4 4 30 2.6663 7.5594
-4 6 1 5.1567 -0.4355
-4 6 2 -1.7512 -2.9140
-4 6 3 -14.1234 -0.4557
-4 6 4 -2.2276 -3.5203
-4 6 5 -11.8857 -0.0119
-4 6 6 -23.9145 -3.6914
-4 6 7 -23.6294 0.3368
-4 6 8 -24.6761 -2.9415
-4 6 9 -31.2670 -1.1193
-4 6 10 2.0943 -1.9418
-4 6 11 -4.7411 -2.2741
-4 6 12 13.5677 -2.6582
-4 6 13 26.7737 -0.4233
-4 6 14 -4.9403 -2.2988
-4 6 15 24.9820 0.4619
-4 6 16 -20.9020 0.2208
-4 6 17 5.3179 -1.8263
-4 6 18 -16.7311 0.5701
-4 6 19 -2.9422 -1.7003
-4 6 20 -5.4479 0.8072
-4 6 21 -5.2859 1.0884
-4 6 22 2.0183 5.0983
-4 6 23 -12.9884 1.3224
-4 6 24 2.9674 8.8116
-4 6 25 -14.8215 1.2440
-4 6 26 -1.1611 9.1886
-4 6 27 -5.2004 2.0176
-4 6 28 -3.0800 9.4985
-4 8 1 -7.3195 1.5755
-4 8 2 3.3880 -1.1006
-4 8 3 -13.7166 0.8731
-4 8 4 4.2474 -0.8829
-4 8 5 1.4455 -0.9211
-4 8 6 19.4595 0.4340
-4 8 7 13.6739 -1.2345
-4 8 8 19.7403 -0.2057
-4 8 9 16.3708 0.0287
-4 8 10 7.4071 0.8159
-4 8 11 14.2358 0.2736
-4 8 12 -0.5936 2.0445
-4 8 13 5.7871 -0.7379
-4 8 14 -1.7489 1.5679
-4 8 15 -2.7955 -1.6661
-4 8 16 -1.3300 2.1999
-4 8 17 -2.0528 -1.4713
-4 8 18 -3.7420 1.1545
-4 8 19 2.6414 1.0332
-4 8 20 -5.3991 -3.1495
-4 8 21 2.9956 3.0290
-4 8 22 1.5281 -4.7002
-4 8 23 1.7243 -0.6770
-4 8 24 10.8770 -4.8945
-4 8 25 1.2737 -5.7292
-4 8 26 10.3012 -8.9953
-4 8 27 -1.2580 -3.2549
-4 10 1 17.8373 0.2745
-4 10 2 -13.7607 -0.2774
-4 10 3 -1.3808 0.1070
-4 10 4 -14.1839 -1.2856
-4 10 5 -21.3913 -1.6013
-4 10 6 4.3039 -1.5010
-4 10 7 -8.3420 -2.0525
-4 10 8 22.0250 0.4409
-4 10 9 10.0138 -1.4822
-4 10 10 17.7342 1.9661
-4 10 11 1.0700 -0.6169
-4 10 12 -2.0403 0.6199
-4 10 13 -13.3525 1.3510
-4 10 14 -10.5689 -1.0225
-4 10 15 -7.0232 3.6128
-4 10 16 -3.7263 -0.8701
-4 10 17 4.4945 2.5206
-4 10 18 -1.1000 -0.6721
-4 10 19 4.9319 -3.4948
-4 10 20 -4.1561 0.0695
-4 10 21 5.0162 -7.9592
-4 10 22 -1.1563 3.7075
-4 10 23 7.9904 -4.4513
-4 12 1 -1.5141 4.1646
-4 12 2 -4.0039 1.9923
-4 12 3 -2.9477 -1.1483
-4 12 4 2.1991 4.6011
-4 12 5 -1.9073 -3.6286
-4 12 6 3.9136 5.6107
-4 12 7 3.8942 -1.7593
-4 12 8 8.7657 2.3881
-4 12 9 3.9166 -0.0347
-4 12 10 10.1043 -1.8620
-4 12 11 -3.4513 1.6984
-4 12 12 -1.6682 -1.1409
-4 12 13 -4.0573 1.9238
-4 12 14 -15.0470 3.1338
-4 12 15 2.9827 -4.4463
-4 12 16 -17.4270 2.2335
-4 12 17 4.0060 -13.9751
-4 14 1 -12.1578 -5.3884
-4 14 2 -16.7952 0.3780
-4 14 3 -8.1219 -5.2334
-4 14 4 -18.9197 0.3725
-4 14 7 -18.2686 3.0102
-4 14 8 7.0157 -6.2282
-4 14 9 -10.8895 7.2394
-4 14 10 17.5665 -9.3423
-3 1 1 -29.5068 -7.7295
-3 1 2 13.8771 -8.5393
-3 1 3 -24.0799 4.9279
-3 1 4 -53.1957 -6.9110
-3 1 5 -35.2849 8.4294
-3 1 6 -72.3748 -8.3998
-3 1 7 -49.4794 4.8971
-3 1 8 -0.9547 -9.6976
-3 1 9 -20.6877 -1.6636
-3 1 10 45.6244 -10.4210
-3 1 11 22.6004 -6.9698
-3 1 12 4.1727 -9.6398
-3 1 13 23.1670 -7.8228
-3 1 14 -40.6357 -5.7836
-3 1 15 -1.5560 -7.6667
-3 1 16 -21.1563 -1.0760
-3 1 17 -2.0325 -10.1765
-3 1 18 16.4912 2.1404
-3 1 19 15.0358 -10.4942
-3 1 20 13.8081 4.2796
-3 1 21 14.4449 -6.6004
-3 1 22 -13.7702 7.0402
-3 1 23 -3.0267 -2.9739
-3 1 24 -16.1189 9.7822
-3 1 25 -13.4260 3.2311
-3 1 26 10.0424 6.8085
-3 1 27 -11.3205 12.5332
-3 1 28 18.3998 -4.3417
-3 1 29 -7.2575 13.4849
-3 3 1 -33.7542 5.9632
-3 3 2 -12.9491 5.4663
-3 3 3 13.4242 2.9226
-3 3 4 13.2705 4.0861
-3 3 5 12.3289 0.5666
-3 3 6 16.9637 3.9426
-3 3 7 -34.1624 -0.6286
-3 3 8 -13.9004 3.1423
-3 3 9 -49.0727 -0.1269
-3 3 10 -30.3035 2.2875
-3 3 11 -24.8579 0.3150
-3 3 12 -12.5093 3.1377
-3 3 13 -13.9397 -1.3394
-3 3 14 8.1091 3.6730
-3 3 15 -16.0374 -3.2018
-3 3 16 9.6858 1.9691
-3 3 17 0.7291 -2.5929
-3 3 18 3.0695 -0.9969
-3 3 19 19.7828 0.1594
-3 3 20 1.4242 -4.4267
-3 3 21 9.3330 1.4962
-3 3 22 2.0942 -7.2762
-3 3 23 -14.1506 -0.0517
-3 3 24 0.2329 -7.2536
-3 3 25 -15.3832 0.7612
-3 3 26 -2.5765 -3.6463
-3 3 27 1.8650 4.0164
-3 3 28 -5.4096 0.9069
-3 3 29 8.5790 0.3426
-3 3 30 -6.9706 2.9826
-3 5 1 49.6381 2.3058
-3 5 2 -29.8904 -0.7898
-3 5 3 31.4953 1.4892
-3 5 4 46.9776 1.4760
-3 5 5 22.8192 0.2040
-3 5 6 73.5203 3.0794
-3 5 7 22.0101 -0.6037
-3 5 8 17.0693 3.6070
-3 5 9 13.9146 0.0432
-3 5 10 -27.8539 4.2386
-3 5 11 8.8393 0.1250
-3 5 12 -11.0197 2.9656
-3 5 13 20.8070 -1.4333
-3 5 14 12.9829 -0.6083
-3 5 15 35.3296 -2.4108
-3 5 16 5.2771 -2.0136
-3 5 17 30.0211 -3.3183
-3 5 18 -8.4974 -1.6032
-3 5 19 10.1309 -4.2615
-3 5 20 -5.5322 -2.6783
-3 5 21 -2.2970 -2.7733
-3 5 22 6.5785 -2.8854
-3 5 23 -2.4472 -2.0633
-3 5 24 15.2286 -2.1802
-3 5 25 0.1187 -3.7653
-3 5 26 14.0758 -4.7336
-3 5 27 2.1651 -0.0739
-3 5 28 6.4479 -8.6502
-3 5 29 3.4404 8.3187
-3 7 1 13.8811 1.8596
-3 7 2 2.4186 2.3587
-3 7 3 -7.2742 1.0036
-3 7 4 -6.3310 1.3552
-3 7 5 -9.3163 -0.2401
-3 7 6 -3.6914 2.0521
-3 7 7 7.7711 0.5067
-3 7 8 3.1195 1.3277
-3 7 9 6.9510 2.5455
-3 7 10 2.5528 -0.1179
-3 7 11 -3.4090 1.9186
-3 7 12 2.8233 0.8723
-3 7 13 1.5385 -0.2078
-3 7 14 8.0297 1.1683
-3 7 15 7.4817 1.3701
-3 7 16 11.5739 0.6378
-3 7 17 -2.7144 4.4041
-3 7 18 11.0742 1.1358
-3 7 19 -11.6549 3.9447
-3 7 20 5.6781 -0.7302
-3 7 21 -3.9510 2.5686
-3 7 22 -2.3753 -1.5093
-3 7 23 6.1460 0.9775
-3 7 24 -4.8705 5.3019
-3 7 25 4.9351 -4.5062
-3 7 26 -1.3390 10.7505
-3 7 27 -0.5711 -8.1156
-3 9 1 13.0227 -0.4733
-3 9 2 -4.4356 -2.5183
-3 9 3 22.9245 -0.0603
-3 9 4 -13.9902 -0.3963
-3 9 5 8.3527 0.6554
-3 9 6 -8.4270 1.9635
-3 9 7 -13.9008 -0.5216
-3 9 8 7.8028 1.1652
-3 9 9 -12.2326 -1.3751
-3 9 10 13.6521 -1.0766
-3 9 11 10.2901 0.2081
-3 9 12 4.9751 -0.8691
-3 9 13 23.2746 1.8574
-3 9 14 -7.4234 -0.2042
-3 9 15 16.7374 2.0717
-3 9 16 -12.9882 0.8268
-3 9 17 6.4126 2.4729
-3 9 18 -12.4924 4.1903
-3 9 19 0.9670 1.6341
-3 9 20 -14.0633 4.6194
-3 9 21 -2.2625 -3.1058
-3 9 22 -14.1444 -0.7310
-3 9 23 -1.1724 -8.8947
-3 9 24 -5.1034 -4.4433
-3 11 1 0.4874 -3.1841
-3 11 2 4.2106 0.6850
-3 11 3 13.9954 -3.1535
-3 11 4 -6.1619 2.1921
-3 11 5 8.1039 -2.6281
-3 11 6 -14.1061 0.0767
-3 11 7 -2.9573 1.1207
-3 11 8 -11.1341 -3.0743
-3 11 9 1.2761 4.2611
-3 11 10 1.9602 -4.2709
-3 11 11 3.9181 0.6946
-3 11 12 8.2068 -4.5335
-3 11 13 -5.9784 -4.9841
-3 11 14 2.2910 -1.8532
-3 11 15 -8.3299 -3.7194
-3 11 16 -1.5401 5.0103
-3 11 17 0.5202 5.8825
-3 11 18 -1.9344 8.0995
-3 11 19 -1.2063 14.9413
-3 11 20 -8.1035 2.8183
-3 13 1 -10.5901 3.3041
-3 13 2 -10.3328 0.6656
-3 13 3 -0.6059 0.9198
-3 13 4 -6.4102 -4.3328
-3 13 5 14.5326 0.7261
-3 13 6 -1.9773 -5.0135
-3 13 7 18.4316 1.6084
-3 13 8 1.1656 -2.4830
-3 13 9 12.3619 -0.5453
-3 13 10 12.8833 -1.2918
-3 13 11 7.2430 -2.6800
-3 13 12 21.3673 -0.3185
-3 13 13 3.2534 1.0314
-3 13 14 13.2773 2.3635
-2 0 2 -93.8384 7.7843
-2 0 4 34.5809 2.7707
-2 0 6 -1.0313 7.1748
-2 0 8 -68.5286 13.3906
-2 0 10 -34.0868 18.5820
-2 0 12 26.8699 17.9542
-2 0 14 10.4841 12.6399
-2 0 16 -39.7203 8.3990
-2 0 18 -42.8779 3.9750
-2 0 20 -9.6949 -3.7439
-2 0 22 3.4763 -11.2801
-2 0 24 -10.3174 -14.8000
-2 0 26 -5.5743 -16.3988
-2 0 28 27.8826 -18.0047
-2 2 1 5.9875 -6.7329
-2 2 2 18.1451 -5.4071
-2 2 3 11.3028 -9.5393
-2 2 4 44.1265 -2.8901
-2 2 5 44.5665 -9.4173
-2 2 6 30.3967 -2.3867
-2 2 7 32.5727 -7.1425
-2 2 8 12.7928 -1.9014
-2 2 9 -8.0649 -4.0840
-2 2 10 24.8798 -1.6022
-2 2 11 0.7165 -0.9769
-2 2 12 39.5663 -2.2822
-2 2 13 42.8991 3.0136
-2 2 14 25.8483 -2.3678
-2 2 15 42.4798 7.9014
-2 2 16 3.6507 -1.5443
-2 2 17 5.2930 9.9954
-2 2 18 0.9820 0.3033
-2 2 19 -6.3141 7.8893
-2 2 20 11.0568 4.2775
-2 2 21 12.0894 6.4687
-2 2 22 12.0142 7.0745
-2 2 23 17.4927 5.7877
-2 2 24 -0.4271 3.9839
-2 2 25 2.1924 0.4222
-2 2 26 -7.0054 -2.5296
-2 2 27 -5.3614 -7.5191
-2 2 28 3.1399 -6.7321
-2 2 29 2.0654 -14.6746
-2 4 1 -1.3754 -0.3836
-2 4 2 -35.6114 0.5014
-2 4 3 9.2366 -0.7723
-2 4 4 -70.7707 -1.3788
-2 4 5 13.0056 -0.4560
-2 4 6 -14.8868 -0.6752
-2 4 7 4.7207 -0.4363
-2 4 8 31.6474 0.8149
-2 4 9 -7.8420 -1.8725
-2 4 10 3.4892 -0.1309
-2 4 11 -6.2235 -1.0271
-2 4 12 -36.0361 -2.2636
-2 4 13 4.3623 2.1798
-2 4 14 -31.0706 -2.9486
-2 4 15 3.4977 3.5923
-2 4 16 -7.7570 -1.5066
-2 4 17 -5.4956 2.0375
-2 4 18 0.8019 1.1017
-2 4 19 -4.8807 -1.2757
-2 4 20 -1.4572 2.2926
-2 4 21 4.2155 -3.0767
-2 4 22 -3.7752 1.2231
-2 4 23 6.4753 -1.6255
-2 4 24 -4.2014 -0.3464
-2 4 25 -1.5641 -1.5777
-2 4 26 -2.0536 -1.5605
-2 4 27 -7.2935 -3.5760
-2 4 28 1.1643 -1.4988
-2 4 29 -3.7325 -1.5714
-2 6 1 27.8917 -2.6401
-2 6 2 4.8725 -1.7823
-2 6 3 42.1770 0.2257
-2 6 4 -28.6728 -2.9275
-2 6 5 15.6567 2.4097
-2 6 6 -13.3338 -3.0700
-2 6 7 1.0683 2.0726
-2 6 8 15.0351 -3.0823
-2 6 9 6.1553 1.0108
-2 6 10 12.9506 -3.3688
-2 6 11 0.9721 0.4016
-2 6 12 -4.4154 -1.3459
-2 6 13 -10.1546 -1.7266
-2 6 14 -5.1622 0.4679
-2 6 15 -4.7096 -3.1385
-2 6 16 5.4837 -1.4295
-2 6 17 6.1179 -0.6058
-2 6 18 10.2450 -1.8630
-2 6 19 -0.7608 0.4494
-2 6 20 7.7053 0.9847
-2 6 21 -14.8172 -2.2013
-2 6 22 1.0472 1.1234
-2 6 23 -12.8947 -1.4357
-2 6 24 -4.8097 -0.7570
-2 6 25 -1.1029 0.6908
-2 6 26 -4.0672 -0.3706
-2 6 27 1.8715 -3.0366
-2 6 28 -1.3093 0.0175
-2 8 1 5.0196 1.4451
-2 8 2 6.9329 2.9077
-2 8 3 20.6693 -1.4539
-2 8 4 4.2411 1.7732
-2 8 5 18.7114 -1.7946
-2 8 6 -12.7428 -0.0949
-2 8 7 13.6889 0.3175
-2 8 8 -10.7915 -0.1834
-2 8 9 4.2714 1.8738
-2 8 10 3.7380 -2.1326
-2 8 11 -13.5588 2.2997
-2 8 12 3.2790 -3.4574
-2 8 13 -22.0360 1.7668
-2 8 14 -8.9538 -0.4824
-2 8 15 -9.4611 0.1080
-2 8 16 -14.7847 1.5230
-2 8 17 9.0921 -0.7598
-2 8 18 -9.4342 1.6237
-2 8 19 18.0115 -0.4447
-2 8 20 -1.0674 2.2915
-2 8 21 18.4240 -0.7643
-2 8 22 -0.4345 -1.6000
-2 8 23 14.5485 0.7673
-2 8 24 -6.0526 -9.1185
-2 8 25 8.0278 5.3119
-2 8 26 -6.9235 -10.2351
-2 10 1 -31.4119 -1.0127
-2 10 2 5.6760 -3.2853
-2 10 3 -20.2528 0.8726
-2 10 4 4.1576 -1.9967
-2 10 5 10.8170 3.6960
-2 10 6 -8.0215 0.9039
-2 10 7 14.0465 3.2906
-2 10 8 -16.6836 1.6547
-2 10 9 -1.7282 0.0935
-2 10 10 -8.8287 1.9250
-2 10 11 -0.2179 -1.6589
-2 10 12 8.9557 4.3850
-2 10 13 10.6945 -0.4855
-2 10 14 16.7648 4.1093
-2 10 15 6.4672 -0.6903
-2 10 16 11.0167 -2.9953
-2 10 17 -4.6087 -3.6088
-2 10 18 7.8893 -10.6077
-2 10 19 -7.1378 -2.3644
-2 10 21 -7.2837 3.3094
-2 10 22 4.7782 -9.1341
-2 12 1 5.7458 3.4521
-2 12 2 1.1371 0.5597
-2 12 3 4.3137 4.6856
-2 12 4 -2.2257 0.9095
-2 12 5 0.9576 2.6104
-2 12 6 -3.3460 1.5385
-2 12 7 -6.8590 0.2111
-2 12 8 -11.3997 2.2106
-2 12 9 -12.7909 1.1834
-2 12 10 -18.5147 2.0378
-2 12 11 -10.5458 1.5446
-2 12 12 -9.6531 -0.9559
-2 12 13 -5.6314 -0.1983
-2 12 14 5.1703 -4.6961
-2 12 15 -3.6011 1.6198
-2 12 16 10.4550 -1.5478
-2 14 1 -1.5605 -5.9501
-2 14 2 7.6775 0.5464
-2 14 3 -8.1368 -5.2020
-2 14 4 16.0385 -0.5456
-2 14 5 -3.3990 -3.4326
-2 14 6 18.8902 -1.7476
-2 14 7 11.2948 0.7824
-2 14 8 4.2107 0.9625
-2 14 9 15.2649 1.4706
-2 14 10 -10.2967 4.8137
-1 1 1 -67.7275 10.8079
-1 1 2 -92.1586 1.4809
-1 1 3 -53.3994 11.7495
-1 1 4 -15.0587 1.6624
-1 1 5 -3.5305 13.1611
-1 1 6 91.5903 1.0884
-1 1 7 47.5505 12.0568
-1 1 8 80.3036 -4.2735
-1 1 9 39.0578 8.8887
-1 1 10 1.6294 -9.6136
-1 1 11 -7.3654 4.8077
-1 1 12 -24.6687 -10.1418
-1 1 13 -21.0551 -0.7492
-1 1 14 -3.5352 -9.8533
-1 1 15 0.1854 -5.8875
-1 1 16 0.4489 -10.2742
-1 1 17 3.8944 -7.7708
-1 1 18 -12.2519 -7.4328
-1 1 19 -18.0927 -9.0775
-1 1 20 -7.4023 -0.9574
-1 1 21 -27.8766 -11.3086
-1 1 22 13.1045 4.7854
-1 1 23 -13.4868 -10.1552
-1 1 24 16.8446 6.5369
-1 1 25 0.3611 -7.5643
-1 1 26 -6.2025 6.1045
-1 1 27 -0.0035 -8.0081
-1 1 28 -20.4598 7.8179
-1 1 29 -3.4124 -5.3226
-1 3 1 34.3682 0.7963
-1 3 2 8.4268 2.8142
-1 3 3 35.2943 1.2880
-1 3 4 -29.2691 2.7457
-1 3 5 53.0149 0.3025
-1 3 6 -40.1009 1.7669
-1 3 7 69.0845 0.4190
-1 3 8 -5.0648 1.6318
-1 3 9 37.1204 1.1358
-1 3 10 27.7561 3.1640
-1 3 11 -15.8709 0.7828
-1 3 12 26.3244 3.0564
-1 3 13 -18.7918 0.3498
-1 3 14 9.8996 1.8545
-1 3 15 21.2297 -0.3050
-1 3 16 1.3397 2.7913
-1 3 17 34.5287 -1.5043
-1 3 18 0.1307 3.6757
-1 3 19 6.9082 -1.8800
-1 3 20 -1.8198 1.3569
-1 3 21 -12.4630 -1.0326
-1 3 22 -4.9564 -1.3879
-1 3 23 -2.0989 0.0548
-1 3 24 -6.2456 -1.8962
-1 3 25 7.7473 -2.6513
-1 3 26 -5.8795 -2.6704
-1 3 27 -2.3217 -12.0735
-1 3 28 -3.0171 -3.9331
-1 3 29 -12.4777 -19.4376
-1 5 1 -55.7973 1.9323
-1 5 2 57.5950 -0.9480
-1 5 3 -13.1351 3.3799
-1 5 4 14.0739 -1.8384
-1 5 5 15.3578 2.9278
-1 5 6 -40.8699 -1.6347
-1 5 7 9.1976 1.6876
-1 5 8 -23.3625 0.9064
-1 5 9 -7.2906 -0.0549
-1 5 10 14.8471 2.7310
-1 5 11 -16.3397 -1.0269
-1 5 12 7.2646 2.4836
-1 5 13 -19.9168 0.3786
-1 5 14 -18.4289 2.2488
-1 5 15 -19.1910 1.5390
-1 5 16 -17.6260 1.3209
-1 5 17 -10.5469 1.5142
-1 5 18 -0.2358 -0.7975
-1 5 19 0.8475 1.0404
-1 5 20 10.0589 -1.9590
-1 5 21 2.4725 -2.5027
-1 5 22 10.0349 -2.9852
-1 5 23 -4.9907 -4.8446
-1 5 24 3.9433 -4.7463
-1 5 25 -8.1772 1.2428
-1 5 26 -1.4179 -4.9834
-1 5 27 -3.2963 6.2464
-1 5 28 -0.3955 -3.1488
-1 7 1 -35.7792 -3.6825
-1 7 2 12.9079 0.1629
-1 7 3 -6.1484 -3.1181
-1 7 4 9.0579 2.2836
-1 7 5 5.6733 -2.1638
-1 7 6 -13.0742 0.2044
-1 7 7 -7.9960 -2.3295
-1 7 8 -32.2931 -1.2025
-1 7 9 -8.6100 -3.4796
-1 7 10 -19.2196 0.0500
-1 7 11 1.3532 -2.6112
-1 7 12 9.1655 0.1560
-1 7 13 -6.0495 0.4217
-1 7 14 18.7572 0.8374
-1 7 15 -19.0056 0.6837
-1 7 16 6.1667 2.1441
-1 7 17 -10.0032 -1.2905
-1 7 18 -11.6438 0.7634
-1 7 19 9.4930 0.5298
-1 7 20 -19.5215 0.6908
-1 7 21 10.9712 4.0620
-1 7 22 -14.0948 2.0592
-1 7 23 -2.8257 4.7930
-1 7 24 -5.7545 -3.1026
-1 7 25 -10.2648 7.1322
-1 7 26 -2.1794 -11.0979
-1 7 27 -6.5660 11.0902
-1 9 1 9.9953 -0.7581
-1 9 2 11.3001 0.3330
-1 9 3 -6.2524 0.1446
-1 9 4 23.9123 -1.6287
-1 9 5 -8.2547 -0.4384
-1 9 6 17.1913 -2.4930
-1 9 7 4.8558 -1.2488
-1 9 8 -5.4654 -0.1517
-1 9 9 9.2722 -2.0025
-1 9 10 -16.4815 1.2753
-1 9 11 -1.6783 -3.4775
-1 9 12 -9.3889 -2.5128
-1 9 13 -12.2775 -1.9969
-1 9 14 0.8921 -5.0186
-1 9 15 -13.6721 4.0136
-1 9 16 4.4833 -1.7768
-1 9 17 -10.6387 6.5370
-1 9 18 4.8005 1.7521
-1 9 19 -6.8881 2.0181
-1 9 20 9.3687 4.4805
-1 9 21 -2.6621 -1.1288
-1 9 22 13.7693 9.1496
-1 9 23 -0.3961 0.6317
-1 9 24 8.0449 11.7966
-1 11 1 2.6139 -2.0620
-1 11 2 -8.1387 -1.0031
-1 11 3 -14.8992 -2.4167
-1 11 4 -4.2381 -1.7839
-1 11 5 -11.5324 -1.1826
-1 11 6 3.2942 -1.2746
-1 11 7 6.5530 -1.1862
-1 11 8 7.3499 -0.2924
-1 11 9 11.0705 -1.6597
-1 11 10 2.6887 -0.8520
-1 11 11 5.6511 -0.0070
-1 11 12 -1.2523 -0.0386
-1 11 13 3.4226 1.2843
-1 11 14 0.2754 1.8708
-1 11 15 -2.7089 -0.4889
-1 11 16 -3.5612 0.1572
-1 11 17 -11.5598 -6.2871
-1 11 18 -10.7737 -2.9481
-1 11 19 -7.3815 -14.3131
-1 13 1 16.1911 1.4274
-1 13 2 13.2122 2.1567
-1 13 3 8.4707 5.1717
-1 13 4 5.7151 0.0660
-1 13 5 -9.7767 4.2930
-1 13 6 -1.1480 -1.0388
-1 13 7 -21.6370 -0.9280
-1 13 8 -1.0503 -1.0686
-1 13 9 -17.5712 -2.2630
-1 13 10 -8.6310 0.4848
-1 13 11 -10.7057 1.8116
-1 13 12 -17.0121 0.1252
-1 13 13 -9.4589 5.2408
0 0 2 229.3457 -2.7090
0 0 4 13.5310 -9.5171
0 0 6 -44.3931 -8.1637
0 0 8 27.2411 2.9132
0 0 10 55.1701 10.5623
0 0 12 18.5438 13.5436
0 0 14 7.5072 16.9770
0 0 16 31.4681 17.2166
0 0 18 37.7198 13.4669
0 0 20 19.0366 10.1134
0 0 22 9.1535 4.9621
0 0 24 20.1084 -3.6477
0 0 26 21.3221 -7.7602
0 0 28 -6.7449 -2.6385
0 2 0 -5.6401 -4.7433
0 2 1 9.6622 -11.0999
0 2 2 -34.6081 -0.6195
0 2 3 2.4527 -10.8597
0 2 4 -76.3448 1.1662
0 2 5 -20.2133 -9.4445
0 2 6 -64.9254 1.9997
0 2 7 3.2096 -8.4899
0 2 8 -14.7642 0.4297
0 2 9 46.6587 -7.7109
0 2 10 9.6728 -2.7639
0 2 11 25.6674 -6.2512
0 2 12 -2.7096 -3.4476
0 2 13 -45.3913 -4.7515
0 2 14 -14.7978 -1.8240
0 2 15 -68.9764 -3.5403
0 2 16 -15.1157 -0.8553
0 2 17 -23.7557 -0.2906
0 2 18 -16.1368 -1.3197
0 2 19 16.1057 6.6006
0 2 20 -18.1824 -3.3478
0 2 21 9.2495 11.9908
0 2 22 -13.3809 -4.4346
0 2 23 -7.0612 10.6267
0 2 24 0.0068 0.8215
0 2 25 0.3808 6.3245
0 2 26 11.1308 10.9340
0 2 27 12.3926 4.0228
0 2 28 6.9888 16.7483
0 4 0 -44.4458 -0.7875
0 4 1 -32.3944 1.1904
0 4 2 3.3221 -1.2644
0 4 3 -76.1660 0.9986
0 4 4 59.6373 0.5571
0 4 5 -70.7804 -0.2258
0 4 6 28.6615 1.1969
0 4 7 -22.9290 -2.8886
0 4 8 -27.3663 -0.7469
0 4 9 24.6579 -2.6807
0 4 10 -22.4068 -1.2503
0 4 11 29.3852 -0.9150
0 4 12 13.3691 0.6078
0 4 13 -1.4404 0.2469
0 4 14 20.3207 1.1447
0 4 15 -22.7815 1.9994
0 4 16 4.5429 -0.1873
0 4 17 -15.5003 3.3572
0 4 18 -4.6392 -0.3670
0 4 19 -1.9232 3.8237
0 4 20 -3.7932 1.0853
0 4 21 -2.8243 2.9310
0 4 22 -0.1758 1.0771
0 4 23 -11.6927 -1.5534
0 4 24 3.1737 -0.8589
0 4 25 -13.2086 -3.2678
0 4 26 2.4914 -1.6886
0 4 27 -7.8444 5.2460
0 4 28 -2.9720 -2.2965
0 6 0 -51.2141 0.5350
0 6 1 -18.8208 -1.0757
0 6 2 -20.2305 1.0341
0 6 3 -24.6840 -0.9791
0 6 4 31.1097 1.3425
0 6 5 6.5599 1.0031
0 6 6 38.6637 0.1572
0 6 7 19.6318 2.9597
0 6 8 6.1988 -1.5517
0 6 9 2.2779 2.6856
0 6 10 -12.1329 -1.6750
0 6 11 -8.9168 0.2874
0 6 12 0.8545 -2.5408
0 6 13 -3.2655 -0.3914
0 6 14 15.2614 -4.1166
0 6 15 -1.8420 0.5118
0 6 16 13.2092 -2.7394
0 6 17 -7.6381 -1.7032
0 6 18 2.7319 -1.5434
0 6 19 -2.3106 -3.4657
0 6 20 -6.3573 -3.2321
0 6 21 13.2604 0.2267
0 6 22 -7.6031 -2.3940
0 6 23 17.2125 2.0182
0 6 24 -1.7001 2.1004
0 6 25 6.0426 -0.9886
0 6 26 0.9604 5.5149
0 6 27 -2.6723 0.6277
0 8 0 -18.6948 2.3026
0 8 1 -14.6896 2.0295
0 8 2 -20.6163 0.8917
0 8 3 -26.6435 2.8588
0 8 4 -8.5628 1.3304
0 8 5 -16.6288 1.4862
0 8 6 18.0704 2.9683
0 8 7 -9.8169 -0.6834
0 8 8 20.0058 1.9747
0 8 9 -7.2289 -0.1652
0 8 10 -6.0172 1.5452
0 8 11 8.6089 1.4974
0 8 12 -19.9121 0.9063
0 8 13 28.8347 0.0948
0 8 14 -7.9329 -3.0225
0 8 15 27.7606 -2.6666
0 8 16 9.4808 -3.6490
0 8 17 4.8715 -3.3852
0 8 18 15.9324 1.0989
0 8 19 -16.9001 -2.5633
0 8 20 11.7580 4.1359
0 8 21 -23.9606 -0.5411
0 8 22 7.0317 5.5276
0 8 23 -18.8970 0.7114
0 8 24 6.5577 7.5180
0 8 25 -7.8744 -2.6661
0 10 0 8.3714 2.2599
0 10 1 16.9759 0.2083
0 10 2 2.8199 2.2830
0 10 3 23.9089 0.5957
0 10 4 -5.0165 0.9027
0 10 5 0.5085 1.3050
0 10 6 -4.7821 -2.5253
0 10 7 -7.7982 2.4717
0 10 8 -1.0699 -2.9255
0 10 9 2.2088 3.7046
0 10 10 -2.2631 1.2719
0 10 11 0.8313 3.8036
0 10 12 -4.8263 4.3649
0 10 13 -7.2893 0.1565
0 10 14 1.2743 3.8596
0 10 15 -2.4579 -4.0967
0 10 16 11.1802 2.9021
0 10 17 7.3463 -2.8898
0 10 18 7.6698 2.2231
0 10 19 10.1968 -0.8768
0 10 20 -5.8983 1.4491
0 10 21 11.3291 -3.1436
0 12 0 0.0118 -5.8403
0 12 1 0.3827 0.5649
0 12 2 5.5014 -4.2524
0 12 3 0.4963 2.2740
0 12 4 10.0617 -1.3400
0 12 5 0.8164 2.8254
0 12 6 6.6356 1.8391
0 12 7 1.9409 0.7263
0 12 8 8.6532 3.5303
0 12 9 2.1365 -3.7433
0 12 10 13.9179 1.4321
0 12 11 3.5338 -3.9757
0 12 12 5.8758 -2.5037
0 12 13 7.9384 0.6779
0 12 14 -8.4979 -4.3559
0 12 15 8.0948 2.3120
0 14 0 -2.1298 -1.9906
0 14 1 2.5978 -2.9610
0 14 2 -0.9527 -1.2411
0 14 3 10.2298 -6.4449
0 14 4 -4.3763 1.3628
0 14 5 12.6998 -4.5288
0 14 6 -10.1395 1.9391
0 14 7 1.6126 -3.7765
0 14 8 -2.3065 -2.9754
1 1 0 -18.0457 7.5731
1 1 1 71.0105 12.1115
1 1 2 89.9665 15.0447
1 1 3 60.3229 8.3159
1 1 4 58.7605 15.0144
1 1 5 7.2358 6.9450
1 1 6 -65.0923 5.5630
1 1 7 -51.9266 8.8320
1 1 8 -108.8914 0.0665
1 1 9 -46.3340 10.3641
1 1 10 -47.2789 0.3573
1 1 11 10.4057 9.3677
1 1 12 8.6792 -2.8154
1 1 13 36.3050 7.4538
1 1 14 13.6314 -8.0410
1 1 15 8.6452 5.6015
1 1 16 7.8154 -10.0601
1 1 17 -15.6917 2.1718
1 1 18 8.9021 -11.3825
1 1 19 -1.4781 -2.9692
1 1 20 2.7117 -12.5117
1 1 21 20.9142 -8.0060
1 1 22 -11.8457 -8.8993
1 1 23 18.4035 -11.5681
1 1 24 -18.4214 -0.2508
1 1 25 2.4563 -9.1019
1 1 26 -5.9364 8.5855
1 1 27 -3.3264 2.3163
1 1 28 8.4794 12.5652
1 3 0 23.7116 -0.0541
1 3 1 -24.0125 -2.8908
1 3 2 27.3353 -2.5390
1 3 3 -15.1900 -4.2311
1 3 4 44.0867 -6.0214
1 3 5 -43.2999 -2.0941
1 3 6 44.1791 -5.1487
1 3 7 -78.3698 0.8741
1 3 8 8.9575 -1.5769
1 3 9 -54.2414 1.7620
1 3 10 -20.6751 -0.1413
1 3 11 13.1197 1.4430
1 3 12 -13.7349 0.8035
1 3 13 37.7944 0.3978
1 3 14 9.1523 3.1566
1 3 15 -2.5747 0.2346
1 3 16 18.4861 3.8212
1 3 17 -39.5063 1.5387
1 3 18 11.4635 3.1305
1 3 19 -26.1029 1.6019
1 3 20 3.9391 4.9818
1 3 21 4.7406 1.0476
1 3 22 5.5536 6.8607
1 3 23 9.9596 1.5784
1 3 24 10.2831 3.8102
1 3 25 0.2925 1.5506
1 3 26 10.9223 -0.6719
1 3 27 3.6722 3.4005
1 3 28 7.4663 -1.4876
1 5 0 3.0746 -0.0212
1 5 1 58.0679 0.2799
1 5 2 -73.5267 -1.5936
1 5 4 -58.4856 -3.0956
1 5 5 -21.3007 0.7119
1 5 6 11.0565 -3.0311
1 5 7 -19.3041 2.6883
1 5 8 32.4030 -2.1827
1 5 9 1.0981 3.8618
1 5 10 7.0231 -0.4075
1 5 11 15.0809 3.6722
1 5 12 -2.6131 2.5990
1 5 13 17.4586 1.1513
1 5 14 8.1202 4.4102
1 5 15 12.5329 -0.6366
1 5 16 8.3669 4.1435
1 5 17 3.6300 -0.1273
1 5 18 -0.7673 3.0445
1 5 19 -3.8082 -0.1333
1 5 20 -3.7750 1.4646
1 5 21 -0.4732 1.7761
1 5 22 -2.3161 0.4664
1 5 23 11.7949 5.2580
1 5 24 -0.8273 0.1936
1 5 25 17.6108 0.8499
1 5 26 1.9079 0.0715
1 5 27 11.2796 -7.5447
1 5 28 3.3734 2.2015
1 7 0 8.5983 -3.0067
1 7 1 25.6303 -1.0950
1 7 2 -2.8661 -1.9639
1 7 3 -19.5647 -2.4659
1 7 4 -17.6184 -0.6043
1 7 5 -32.6309 -4.0287
1 7 6 -8.9790 1.5364
1 7 7 -3.3243 -4.0770
1 7 8 19.0919 0.9064
1 7 9 15.8572 -2.4695
1 7 10 24.7213 -2.1124
1 7 11 8.9911 -0.9674
1 7 12 0.5951 -1.2389
1 7 13 6.0679 -1.0468
1 7 14 -19.4295 1.2910
1 7 15 13.4304 -0.4957
1 7 16 -17.4596 0.7926
1 7 17 7.7250 1.8497
1 7 18 -3.0024 -0.2496
1 7 19 -11.6763 2.4367
1 7 20 8.3480 -0.9696
1 7 21 -18.5450 2.0800
1 7 22 7.9257 0.5554
1 7 23 -6.1312 5.2486
1 7 24 1.6144 8.7509
1 7 25 5.7562 7.2802
1 7 26 -1.0627 16.4372
1 9 0 2.0498 1.6405
1 9 1 -14.1210 3.8299
1 9 2 -2.2496 -0.7399
1 9 3 -1.0358 1.5562
1 9 4 -11.2834 -2.9637
1 9 5 6.5978 -0.3179
1 9 6 -12.4742 -1.5595
1 9 7 0.8806 -1.5633
1 9 8 0.8873 0.2293
1 9 9 -5.0125 -3.4426
1 9 10 10.1894 0.3138
1 9 11 -7.3434 -2.9972
1 9 12 5.7238 2.0176
1 9 13 -9.7776 -0.2529
1 9 14 -0.4919 3.1428
1 9 15 -7.1692 -0.1438
1 9 16 1.7842 0.6284
1 9 17 0.6832 0.2327
1 9 18 7.4697 -1.6617
1 9 19 3.0683 4.7074
1 9 20 5.1300 -3.5997
1 9 21 -1.8995 5.0512
1 9 22 -2.9980 -8.4382
1 9 23 -5.2993 -1.8467
1 11 0 -8.0261 -0.6056
1 11 1 -7.6134 -0.5809
1 11 2 -2.7329 -0.4354
1 11 3 5.8672 -2.1069
1 11 4 6.0112 1.8805
1 11 5 7.8646 -3.5827
1 11 6 10.6284 2.2214
1 11 7 -3.0337 -1.3083
1 11 8 9.9896 -0.2288
1 11 9 -4.8645 2.9393
1 11 10 7.6837 -1.3051
1 11 11 -0.6272 4.4767
1 11 12 -0.4595 -0.4400
1 11 13 2.0572 3.7755
1 11 14 -11.1624 0.5560
1 11 15 14.3658 0.0299
1 11 16 -5.6878 0.9590
1 11 17 30.6344 -5.9792
1 11 18 14.0117 -1.0698
1 13 0 4.0128 4.4538
1 13 1 -15.1975 1.3537
1 13 2 -6.8613 6.0621
1 13 3 -10.1083 -0.2325
1 13 4 -2.2386 3.2581
1 13 5 4.5073 1.2918
1 13 6 0.2265 0.6374
1 13 7 21.8568 5.6131
1 13 8 -8.2960 1.0616
1 13 9 24.1068 4.2131
1 13 10 -6.3814 1.9584
1 13 11 13.7494 -3.4681
2 0 0 -249.7738 -26.5537
2 0 2 -216.5206 -39.9464
2 0 4 -43.6673 -31.5039
2 0 10 -61.2304 -7.8024
2 0 12 -39.6369 2.1172
2 0 14 -10.6389 7.7225
2 0 16 -10.5303 11.0461
2 0 18 -12.2634 15.5535
2 0 20 -3.3858 15.2946
2 0 22 1.5913 11.5835
2 0 24 -5.5269 9.9628
2 0 26 -11.2787 4.7060
2 0 28 0.5041 -7.1117
2 2 0 -16.2832 2.2259
2 2 1 -33.5846 0.3400
2 2 2 -4.3097 4.3829
2 2 3 -20.2754 2.6595
2 2 4 44.6885 7.3220
2 2 5 25.5095 -0.7792
2 2 6 65.4591 5.8007
2 2 7 16.0758 -5.3989
2 2 8 35.4669 1.6305
2 2 9 -46.4997 -7.8013
2 2 10 1.2320 0.3579
2 2 11 -63.0510 -8.2644
2 2 12 -6.4453 0.5698
2 2 13 -4.7917 -7.7989
2 2 14 -4.0846 -1.1806
2 2 15 44.9910 -6.9522
2 2 16 -1.4990 -3.7634
2 2 17 28.5771 -5.4293
2 2 18 6.7581 -5.4043
2 2 19 -11.3980 -3.5146
2 2 20 14.0533 -4.9673
2 2 21 -17.8879 -0.4649
2 2 22 12.3622 -1.5920
2 2 23 -1.9707 6.2156
2 2 24 3.4223 2.0229
2 2 25 -0.7345 13.5205
2 2 26 -6.9808 2.7632
2 2 27 -9.6452 13.8629
2 2 28 -9.4731 1.9964
2 4 0 35.6241 -0.6764
2 4 1 20.3166 5.6954
2 4 2 25.9193 0.0279
2 4 3 44.2575 3.7726
2 4 4 -32.3378 0.6152
2 4 5 51.1030 1.4699
2 4 6 -34.2281 0.9123
2 4 7 24.7567 1.2667
2 4 8 7.4467 2.4276
2 4 9 -12.8246 0.0413
2 4 10 16.2882 2.5556
2 4 11 -20.1745 -1.5881
2 4 12 -6.0444 -0.1493
2 4 13 7.9340 -1.4594
2 4 14 -12.2544 -1.5418
2 4 15 32.4064 -1.4441
2 4 16 0.9955 0.2414
2 4 17 24.9524 -1.2243
2 4 18 7.6796 1.2797
2 4 19 0.8080 -0.9560
2 4 20 1.5713 -0.2649
2 4 21 -9.6513 -1.9101
2 4 22 -6.2422 -0.5401
2 4 23 -0.5252 1.7081
2 4 24 -9.5780 1.3649
2 4 25 8.6581 9.5558
2 4 26 -8.6885 0.1472
2 4 27 6.0816 7.9131
2 6 0 51.4027 3.6145
2 6 1 22.1457 0.2812
2 6 2 53.2598 3.7185
2 6 3 38.5908 -1.1988
2 6 4 12.4928 3.5209
2 6 5 7.5167 -1.7914
2 6 6 -17.6799 3.5275
2 6 7 -14.9402 -0.1822
2 6 8 -10.5143 3.5365
2 6 9 -6.2017 2.1830
2 6 10 6.1579 1.6767
2 6 11 3.1601 3.0657
2 6 12 6.0001 -0.5688
2 6 13 -1.7257 0.7469
2 6 14 0.1062 -1.7039
2 6 15 -2.2297 -2.7475
2 6 16 1.9003 -3.6344
2 6 17 10.2776 -1.6912
2 6 18 5.6083 -4.3607
2 6 19 16.9105 1.1943
2 6 20 7.2481 -2.0409
2 6 21 6.8686 -2.7535
2 6 22 8.0051 -0.3417
2 6 23 -2.3938 -9.1994
2 6 24 5.6406 1.0088
2 6 25 1.2342 -8.9888
2 6 26 2.8594 3.1724
2 8 0 -7.5493 -1.2137
2 8 1 18.5513 0.0396
2 8 2 -8.7113 0.2751
2 8 3 17.4927 1.1781
2 8 4 -3.8343 0.4386
2 8 5 -4.9990 1.3939
2 8 6 -13.7933 -1.3601
2 8 7 -12.0016 1.5592
2 8 8 -16.8951 -0.3782
2 8 9 3.2117 1.0148
2 8 10 2.9688 0.8837
2 8 11 8.6279 -0.2195
2 8 12 18.3147 0.5406
2 8 13 -10.6823 0.9547
2 8 14 9.5358 1.6611
2 8 15 -28.9717 2.8505
2 8 16 -8.3428 0.9464
2 8 17 -21.1592 0.8872
2 8 18 -16.0163 -3.3931
2 8 19 1.9681 -2.0974
2 8 20 -10.6803 -6.3556
2 8 21 16.3467 -2.3817
2 8 22 -3.6060 -8.3299
2 8 23 15.8086 -1.6836
2 8 24 -3.2297 -9.9544
2 10 0 -0.4473 0.0718
2 10 1 6.7274 -0.9820
2 10 2 -1.6212 1.3354
2 10 3 -9.6027 -1.7183
2 10 4 1.8792 1.1787
2 10 5 -3.5343 -1.2771
2 10 6 0.5054 0.7606
2 10 7 -6.4482 0.3931
2 10 8 -3.9258 -0.5978
2 10 9 -15.3591 1.4142
2 10 10 -1.0515 -3.2162
2 10 11 -3.8894 -1.6694
2 10 12 6.5992 -3.6196
2 10 13 10.5646 -4.2636
2 10 14 2.4609 0.0267
2 10 15 1.4452 -0.5675
2 10 16 -14.5605 4.5156
2 10 17 -13.0449 4.6347
2 10 18 -20.6650 6.8348
2 10 19 -11.5279 7.9812
2 10 20 -6.9777 5.5048
2 12 0 2.1115 -0.9976
2 12 1 -5.2527 -2.2247
2 12 2 -7.7444 -2.1817
2 12 3 -0.8411 -0.4016
2 12 4 -13.3228 -3.4179
2 12 5 1.6645 -1.2929
2 12 6 -5.5934 -3.7311
2 12 7 0.2258 -2.8657
2 12 8 -3.1256 -2.0824
2 12 9 1.8285 -1.9805
2 12 10 -10.0531 0.6724
2 12 11 2.9236 -3.3758
2 12 12 -6.2385 0.1572
2 12 13 -5.9044 -7.6479
2 14 0 2.5377 1.3858
2 14 1 -2.3004 7.0456
2 14 2 -3.7085 2.0315
2 14 3 -5.7586 1.7710
2 14 4 -3.4201 -0.4357
2 14 5 -12.0881 -5.7793
2 14 6 7.4701 -4.9301
2 14 7 -9.4474 -6.3897
3 1 0 0.6722 11.9181
3 1 1 4.6796 -12.7451
3 1 2 -73.2776 7.7902
3 1 3 -43.5787 -13.7289
3 1 4 -71.0598 3.8059
3 1 5 -45.6891 -6.5807
3 1 6 24.0448 9.8785
3 1 7 3.1792 1.2690
3 1 8 85.6787 14.0634
3 1 9 29.9401 6.8476
3 1 10 56.8757 8.4101
3 1 11 7.9689 9.8772
3 1 12 10.1514 3.4452
3 1 13 -10.0407 10.7622
3 1 14 -3.5492 2.4316
3 1 15 9.6228 9.8966
3 1 16 -6.8933 -1.2820
3 1 17 32.9745 7.1784
3 1 18 -13.0990 -5.6400
3 1 19 23.1245 3.4495
3 1 20 -9.7129 -7.1488
3 1 21 -3.4045 0.6398
3 1 22 2.3614 -10.0604
3 1 23 -11.7222 -0.5612
3 1 24 10.7054 -15.1549
3 1 25 -3.0190 -3.1628
3 1 26 7.5458 -17.5995
3 1 27 0.4579 -9.8386
3 3 0 -9.4865 -7.2410
3 3 1 48.8481 0.2971
3 3 2 13.8557 -7.7939
3 3 3 21.4299 2.8551
3 3 4 11.9009 -5.3658
3 3 5 24.4382 1.2656
3 3 6 -4.8626 -3.2917
3 3 7 67.2602 -1.3758
3 3 8 -4.4484 -3.0338
3 3 9 74.1540 -1.2721
3 3 10 2.0511 -2.0586
3 3 11 20.2347 0.1889
3 3 12 -5.3870 -1.0070
3 3 13 -25.7626 1.7698
3 3 14 -17.2965 -1.5771
3 3 15 -12.8093 1.7208
3 3 16 -16.4065 -0.7683
3 3 17 23.7413 -0.9198
3 3 18 -1.9298 2.9303
3 3 19 29.0537 -1.5135
3 3 20 10.1886 5.1678
3 3 21 6.7585 0.7588
3 3 22 6.5705 3.5613
3 3 23 -3.9695 1.2415
3 3 24 -4.3428 0.7846
3 3 25 3.5782 2.1799
3 3 26 -6.7938 -2.3384
3 3 27 5.0251 5.2168
3 5 0 -44.9135 1.1391
3 5 1 -48.1136 -3.1258
3 5 2 1.7206 0.3729
3 5 3 -20.4512 -0.4073
3 5 4 18.0323 -1.2977
3 5 5 0.5755 0.4282
3 5 6 -8.7495 -3.1422
3 5 7 -2.7140 -0.2752
3 5 8 -14.9819 -3.6813
3 5 9 -14.8818 -0.3854
3 5 10 8.3078 -2.5536
3 5 11 -21.4801 0.0936
3 5 12 13.9914 -1.2996
3 5 13 -22.6592 1.8952
3 5 14 -5.7757 0.1365
3 5 15 -20.5940 2.9708
3 5 16 -16.9730 2.1458
3 5 17 -12.4749 1.3210
3 5 18 -10.5832 4.1021
3 5 19 -0.1952 0.4779
3 5 20 -5.7558 5.3939
3 5 21 2.4051 -1.0237
3 5 22 -7.6652 4.3850
3 5 23 -8.8947 -7.3636
3 5 24 -7.3663 2.8835
3 5 25 -16.0709 -10.3713
3 5 26 -4.3805 5.2226
3 5 27 -9.0041 -4.5025
3 7 0 7.0532 -0.8808
3 7 1 -0.5362 -1.5051
3 7 2 7.8314 -1.7503
3 7 3 44.4272 -0.0284
3 7 4 16.6191 -0.5881
3 7 5 51.9567 1.2166
3 7 6 14.5422 0.1346
3 7 7 9.3745 0.8546
3 7 8 -12.3666 0.3596
3 7 9 -21.6424 -0.2089
3 7 10 -32.4631 1.5286
3 7 11 -10.4183 -1.0193
3 7 12 -21.4278 0.8962
3 7 13 9.6904 -1.3217
3 7 14 1.4362 -0.7632
3 7 15 9.2913 -1.9917
3 7 16 13.0645 -0.9950
3 7 17 2.1096 -3.9994
3 7 18 10.3827 -0.8148
3 7 19 6.8597 -4.6796
3 7 20 0.7322 1.0105
3 7 21 12.5421 -1.9728
3 7 22 -4.3810 1.0651
3 7 23 5.4401 0.0629
3 7 24 -1.9414 -8.0669
3 7 25 -5.0939 -0.8052
3 9 0 -1.7910 -1.0810
3 9 1 2.3280 1.1122
3 9 2 -8.6719 0.1189
3 9 3 7.6521 2.1938
3 9 4 -3.4741 1.9429
3 9 5 10.7591 3.3083
3 9 6 11.5362 1.1155
3 9 7 11.9612 2.1182
3 9 8 15.2122 -0.3619
3 9 9 2.0466 1.0183
3 9 10 7.9258 0.5115
3 9 11 -6.3201 -0.1357
3 9 12 4.1587 0.5479
3 9 13 2.0309 -2.5612
3 9 14 5.4757 -0.4974
3 9 15 10.8514 -1.7883
3 9 16 2.1753 0.0504
3 9 17 4.9546 0.2938
3 9 18 -8.2394 0.5731
3 9 19 -0.9553 -3.7780
3 9 20 -13.5358 2.1661
3 9 21 3.9021 -8.0669
3 9 22 -6.2491 7.0944
3 11 0 11.1470 -0.3633
3 11 1 4.9615 0.9836
3 11 2 8.0781 -0.7149
3 11 3 -8.5304 -0.4850
3 11 4 -3.8599 0.2728
3 11 5 -13.1354 -0.1482
3 11 6 -10.8864 2.4638
3 11 7 -4.7894 -1.6412
3 11 8 -8.0711 4.1927
3 11 9 -4.7834 -2.3611
3 11 10 -4.6112 4.0300
3 11 11 -5.7343 2.6669
3 11 12 0.3283 2.5784
3 11 13 3.8497 6.5931
3 11 14 11.2542 -1.3920
3 11 15 1.5544 4.5077
3 11 16 13.1090 -6.8671
3 13 0 -0.1971 2.3673
3 13 1 9.5350 -3.3127
3 13 2 9.6957 3.6543
3 13 3 7.0204 -1.0358
3 13 4 -0.5805 5.7654
3 13 5 1.2448 0.6991
3 13 6 -12.2901 5.1396
3 13 7 -14.0541 0.8051
3 13 8 -5.4922 -1.0809
3 13 9 -25.1813 2.7466
3 13 10 1.5933 -5.3661
4 0 0 103.1290 0.6394
4 0 2 160.7656 13.5862
4 0 4 98.1729 3.1388
4 0 6 36.6764 -17.1046
4 0 8 43.2395 -22.0398
4 0 10 46.1190 -17.2511
4 0 12 4.9199 -14.3247
4 0 14 -23.7217 -8.1567
4 0 16 -11.2958 -0.0367
4 0 18 4.1618 4.4650
4 0 20 0.7815 10.6501
4 0 22 -6.0125 15.8383
4 0 24 -2.9904 9.3621
4 0 26 4.9419 -0.8933
4 2 0 4.9086 2.5951
4 2 1 -5.9525 11.1355
4 2 2 -13.5345 4.6408
4 2 3 31.6452 10.3130
4 2 4 -45.6992 5.1233
4 2 5 -7.0416 8.1616
4 2 6 -61.6927 4.4570
4 2 7 -30.3882 4.7100
4 2 8 -39.8460 4.8397
4 2 9 12.3290 0.6543
4 2 10 -7.4684 3.4145
4 2 11 49.0546 -3.0918
4 2 12 6.9250 0.0238
4 2 13 21.8106 -6.8363
4 2 14 11.1598 -1.1137
4 2 15 -25.4169 -8.9689
4 2 16 11.2595 -0.2042
4 2 17 -30.2704 -8.4675
4 2 18 0.3739 -0.8478
4 2 19 -2.4183 -6.3674
4 2 20 -12.4009 -3.3709
4 2 21 9.8813 -3.5431
4 2 22 -14.6473 -5.7184
4 2 23 0.0068 -3.0767
4 2 24 -10.4568 -6.6194
4 2 25 -2.4283 -6.8356
4 2 26 -5.3121 -6.1614
4 2 27 5.4588 -9.0577
4 4 0 -9.1438 1.0078
4 4 1 26.3242 0.1407
4 4 2 -22.1016 0.2009
4 4 3 34.8512 1.2899
4 4 4 18.1069 -0.9193
4 4 5 6.5460 2.5865
4 4 6 32.1749 -0.7040
4 4 7 -21.6974 0.5890
4 4 8 6.5299 -1.0872
4 4 9 -19.4322 -1.0780
4 4 10 -4.9723 -1.6629
4 4 11 -3.1707 -0.8529
4 4 12 8.9478 -0.5855
4 4 13 0.3209 -1.3010
4 4 14 14.2719 0.0582
4 4 15 -6.9226 -1.4927
4 4 16 0.8952 -1.6213
4 4 17 -7.7501 -1.6192
4 4 18 -9.3543 -2.9666
4 4 19 2.6473 -1.8838
4 4 20 -3.2554 -1.3156
4 4 21 11.5421 1.0651
4 4 22 8.5553 0.7046
4 4 23 5.8239 1.9106
4 4 24 12.2608 -0.5286
4 4 25 -7.0658 -6.5985
4 4 26 7.8958 -1.6239
4 4 27 -9.9690 -13.5070
4 6 0 -25.6684 0.6269
4 6 1 -46.4315 -0.1645
4 6 2 -38.4651 1.5119
4 6 3 -50.3576 -1.8868
4 6 4 -24.1337 1.3620
4 6 5 -6.3629 -2.1095
4 6 6 -4.7667 1.7940
4 6 7 25.6765 -1.7224
4 6 8 -3.4531 3.2617
4 6 9 17.8264 -1.1048
4 6 10 -11.7035 4.8541
4 6 11 2.5604 -0.0610
4 6 12 -11.1104 4.3233
4 6 13 4.6935 2.0043
4 6 14 -6.8372 2.0444
4 6 15 9.8131 4.8930
4 6 16 -9.0219 1.1870
4 6 17 0.2799 4.1284
4 6 18 -8.9072 -0.7823
4 6 19 -11.5597 -1.9130
4 6 20 -1.4697 -5.6721
4 6 21 -7.2748 -5.9523
4 6 22 3.4209 -7.9638
4 6 23 2.2781 -4.2495
4 6 24 3.5743 -9.0403
4 6 25 0.9237 -1.5778
4 8 0 21.4850 -2.6152
4 8 1 -16.7448 -0.5005
4 8 2 21.6902 -1.7601
4 8 3 -20.9954 0.8990
4 8 4 1.0545 -2.3144
4 8 5 1.5074 1.4012
4 8 6 -3.4420 -1.1187
4 8 7 13.9865 -0.4034
4 8 8 9.1281 -1.1398
4 8 9 -3.5194 -1.9658
4 8 10 10.1513 -2.0942
4 8 11 -24.7737 0.8373
4 8 12 -0.0014 -2.0400
4 8 13 -16.7822 3.9105
4 8 14 -3.2986 -1.9740
4 8 15 12.0799 2.8543
4 8 16 2.1834 0.9463
4 8 17 24.0003 2.1723
4 8 18 7.1908 6.7154
4 8 19 7.7949 3.4826
4 8 20 5.1448 10.3347
4 8 21 -11.9782 3.1602
4 8 22 -0.5371 14.2311
4 8 23 -17.1239 2.7535
4 10 0 1.6086 2.0803
4 10 1 -7.1994 -0.3258
4 10 2 11.8826 1.2350
4 10 3 4.5462 -1.4796
4 10 4 8.1551 0.1345
4 10 5 0.7640 -1.9676
4 10 6 1.7634 -1.1176
4 10 7 8.7334 -1.0634
4 10 8 2.3146 -2.5002
4 10 9 24.1763 -2.2575
4 10 10 1.5054 -3.1412
4 10 11 11.9785 -2.2916
4 10 12 -9.1822 -1.9762
4 10 13 -11.3555 1.7364
4 10 14 -16.8177 1.4577
4 10 15 -5.1245 5.1308
4 10 16 -6.8902 4.9716
4 10 17 15.2545 5.2693
4 10 18 6.5000 3.6901
4 10 19 15.4914 1.2122
4 12 0 -8.2905 -1.0345
4 12 1 0.6929 -5.1291
4 12 2 1.9589 -1.5214
4 12 3 -2.6976 -3.5383
4 12 4 11.7449 -2.4208
4 12 5 -1.5710 -0.6199
4 12 6 4.7800 -1.5381
4 12 7 8.9403 1.2793
4 12 8 -0.7765 -0.4296
4 12 9 11.8648 0.2407
4 12 10 8.5257 -2.4779
4 12 11 -0.7012 3.0797
4 12 12 12.9117 -1.7864
4 12 13 -7.1713 12.8978
4 14 0 -12.4855 2.7177
4 14 1 12.0633 4.1521
4 14 2 -2.1226 2.0145
4 14 3 3.0698 7.7033
4 14 4 7.3683 3.6598
4 14 5 -1.8727 12.8874
5 1 0 60.8017 -7.1175
5 1 1 -35.6877 -11.0964
5 1 2 60.2572 -7.2888
5 1 3 27.8199 -13.8199
5 1 4 38.8991 3.1281
5 1 5 72.3979 -14.3984
5 1 6 -19.7055 8.4737
5 1 7 42.9199 -10.4481
5 1 8 -49.5196 7.6819
5 1 9 -7.8701 -4.4180
5 1 10 -19.4513 9.8642
5 1 11 -21.5250 1.6739
5 1 12 12.7975 10.9765
5 1 13 -12.0131 6.4335
5 1 14 9.1797 7.7726
5 1 15 -14.2242 8.6084
5 1 16 0.9111 6.5702
5 1 17 -23.7207 9.8189
5 1 18 8.4744 5.4039
5 1 19 -16.5164 10.8113
5 1 20 13.2377 -0.9017
5 1 21 3.6079 8.2119
5 1 22 6.0281 -5.3825
5 1 23 11.1292 0.0483
5 1 24 -3.0089 -1.8277
5 1 25 3.1352 -8.8886
5 1 26 -6.0954 4.5620
5 3 0 -7.3881 -2.5492
5 3 1 -96.8523 0.0096
5 3 2 -30.6044 -1.5031
5 3 3 -62.0228 -0.0640
5 3 4 -35.4043 -2.3410
5 3 5 -11.4879 0.4811
5 3 6 -16.3206 -3.1257
5 3 7 -22.7930 0.5800
5 3 8 -6.4678 -2.6676
5 3 9 -49.6495 -1.0594
5 3 10 -10.4473 -2.7296
5 3 11 -33.5004 -1.4328
5 3 12 -11.5096 -3.5883
5 3 13 0.5069 -0.5284
5 3 14 -5.5352 -3.2766
5 3 15 5.1768 -0.0764
5 3 16 0.4633 -1.6220
5 3 17 -13.7184 1.1936
5 3 18 -1.7119 -0.0459
5 3 19 -20.1646 0.8397
5 3 20 -9.9240 0.6428
5 3 21 -6.3180 -2.4871
5 3 22 -9.5125 0.8167
5 3 23 3.5157 -2.5845
5 3 24 2.8913 1.7969
5 3 25 -1.4510 0.0265
5 3 26 11.3147 3.8913
5 5 0 39.6973 3.0399
5 5 1 3.8423 -0.9939
5 5 2 16.9750 4.2114
5 5 3 -14.7472 -1.1966
5 5 4 -3.7103 4.1469
5 5 5 -7.2919 -0.4045
5 5 6 0.9713 1.4799
5 5 7 17.4869 -0.0641
5 5 8 -1.7738 -2.0323
5 5 9 28.6536 -1.2634
5 5 10 -20.2487 -3.5377
5 5 11 18.4289 -0.8743
5 5 12 -22.8203 -1.9469
5 5 13 6.1596 1.1431
5 5 14 -1.4315 -0.2398
5 5 15 6.7931 2.7464
5 5 16 13.2169 -0.4835
5 5 17 10.7712 4.2481
5 5 18 5.3487 -1.3949
5 5 19 1.9506 3.7995
5 5 20 -4.8410 -2.3251
5 5 21 -9.8044 1.8462
5 5 22 -2.4789 -1.0495
5 5 23 -5.7237 3.8045
5 5 24 1.6024 3.0093
5 5 25 3.5619 7.2660
5 5 26 -1.1181 2.6931
5 7 0 -13.1139 0.5311
5 7 1 18.3572 1.3623
5 7 2 8.3112 0.1211
5 7 3 -22.5038 1.0568
5 7 4 14.9593 0.5204
5 7 5 -41.0873 1.5799
5 7 6 6.8838 1.0385
5 7 7 -10.9167 2.9451
5 7 8 12.2454 1.0258
5 7 9 20.0486 2.6217
5 7 10 26.7681 -0.8423
5 7 11 14.0266 -0.0199
5 7 12 26.4267 -2.2204
5 7 13 -9.1955 -2.7008
5 7 14 13.3285 -1.8001
5 7 15 -15.0288 -3.9351
5 7 16 2.1431 0.5438
5 7 17 -3.5605 -2.5239
5 7 18 -1.5233 3.6384
5 7 19 1.8368 1.5723
5 7 20 2.8335 -0.6612
5 7 21 -1.3332 4.8157
5 7 22 7.6499 -10.6878
5 7 23 0.9929 5.0366
5 9 0 -14.4799 0.7446
5 9 1 -9.4748 0.9976
5 9 2 3.8743 0.1461
5 9 3 -12.5693 1.2980
5 9 4 14.1654 -0.9930
5 9 5 -11.0935 -0.0408
5 9 6 -0.8796 -1.0926
5 9 7 -7.9127 1.2385
5 9 8 -20.1442 0.5358
5 9 9 7.0799 3.0726
5 9 10 -22.9281 1.7943
5 9 11 21.0553 2.1194
5 9 12 -13.5715 1.9063
5 9 13 10.1345 0.1273
5 9 14 -4.8003 -1.3402
5 9 15 -8.4908 -3.4904
5 9 16 0.3002 -7.0023
5 9 17 -5.1681 -6.1147
5 9 18 5.8052 -7.3164
5 9 19 6.7534 -0.1419
5 9 20 9.4327 -3.0810
5 11 0 -5.3404 0.8640
5 11 1 2.0136 0.7303
5 11 2 -8.8479 -0.1067
5 11 3 11.1102 2.5289
5 11 4 -1.1154 -0.1915
5 11 5 10.9048 0.9907
5 11 6 6.0092 -0.1780
5 11 7 -3.2127 0.2573
5 11 8 3.2012 1.0380
5 11 9 -3.0140 2.6303
5 11 10 0.8994 1.6897
5 11 11 7.0672 0.3502
5 11 12 2.9365 -2.2749
5 11 13 -1.5463 -5.2159
5 11 14 -1.9566 -5.0056
5 11 15 -13.9281 -5.2569
5 13 0 -4.5940 -6.2412
5 13 1 -0.6752 0.0045
5 13 2 -15.3243 -2.0274
5 13 3 2.0591 -1.0281
5 13 4 -3.3193 -1.9802
5 13 5 -1.5268 -0.6777
5 13 6 16.6346 -6.2606
5 13 7 0.0879 -0.5034
6 0 0 -36.9528 17.3453
6 0 2 -74.7913 11.4470
6 0 4 -70.2844 3.0878
6 0 6 -62.4427 0.4101
6 0 8 -76.8270 -6.8874
6 0 10 -65.3697 -15.4737
6 0 12 -11.4020 -15.9131
6 0 14 24.2275 -14.9571
6 0 16 9.1822 -14.2722
6 0 18 -15.2929 -7.3469
6 0 20 -15.5407 -0.9713
6 0 22 -3.4958 1.9615
6 0 24 3.5491 11.9926
6 0 26 4.2394 22.9579
6 2 0 19.9529 0.3260
6 2 1 25.9001 5.8238
6 2 2 30.7226 -4.3786
6 2 3 -60.8079 7.3380
6 2 4 31.8419 -5.7541
6 2 5 -44.5279 8.6730
6 2 6 25.4552 -1.7954
6 2 7 16.0575 8.7605
6 2 8 10.1719 1.9148
6 2 9 24.6244 5.8345
6 2 10 0.9949 3.6360
6 2 11 -1.8151 0.8115
6 2 12 8.2544 5.5398
6 2 13 -5.0000 -1.5525
6 2 14 13.6010 5.5797
6 2 15 12.3535 -2.0452
6 2 16 6.0132 2.1810
6 2 17 13.1335 -4.8889
6 2 18 1.4380 -0.6741
6 2 19 -5.2837 -9.0140
6 2 20 6.1652 -0.7713
6 2 21 -12.6393 -11.1988
6 2 22 8.2962 -1.4675
6 2 23 -1.7492 -8.5277
6 2 24 4.8811 -3.6809
6 2 25 2.3874 0.6136
6 2 26 1.8213 -2.5188
6 4 0 10.2623 0.5253
6 4 1 17.4546 -3.0854
6 4 2 30.3343 0.1145
6 4 3 -34.9641 -4.1975
6 4 4 2.6395 0.1641
6 4 5 -38.0690 -3.6263
6 4 6 -16.8109 -0.2292
6 4 7 -2.9737 0.7939
6 4 8 -3.4518 0.0498
6 4 9 18.0641 3.6938
6 4 10 8.5787 0.6261
6 4 11 12.5106 1.4428
6 4 12 0.4532 -0.1022
6 4 13 2.4826 -1.0439
6 4 14 -9.4566 -0.8986
6 4 15 1.4539 -1.2951
6 4 16 -5.0020 -0.4934
6 4 17 6.5712 -0.0593
6 4 18 6.3019 0.3655
6 4 19 8.2888 2.1781
6 4 20 8.9466 0.4616
6 4 21 2.0855 1.1387
6 4 22 1.5427 -0.8657
6 4 23 -1.7663 -2.4465
6 4 24 -4.6076 -1.4382
6 4 25 4.7290 -0.1870
6 4 26 -3.5438 0.3759
6 6 0 -18.4056 -1.5547
6 6 1 15.0026 1.6947
6 6 2 -8.5619 -2.2460
6 6 3 23.3735 -0.3676
6 6 4 1.6022 -1.1299
6 6 5 -4.7814 -2.8130
6 6 6 8.9936 0.0713
6 6 7 -23.2970 -3.0087
6 6 8 13.0553 -0.3909
6 6 9 -7.2374 -1.5266
6 6 10 11.1390 -1.2049
6 6 11 11.2729 -0.6068
6 6 12 1.7221 0.8604
6 6 13 2.8655 -0.6150
6 6 14 -4.2013 4.2268
6 6 15 -19.1512 -0.9926
6 6 16 3.2323 2.9400
6 6 17 -23.7089 0.4061
6 6 18 9.9803 0.6525
6 6 19 -9.2441 6.0658
6 6 20 1.8530 3.9405
6 6 21 -1.1837 13.2112
6 6 22 -8.4156 5.9454
6 6 23 -3.3007 16.2520
6 6 24 -7.5845 3.5475
6 8 0 -3.0485 -3.9739
6 8 1 17.7399 -1.4802
6 8 2 -16.3093 -4.7506
6 8 3 18.6232 -1.5700
6 8 4 -0.2007 -2.0065
6 8 5 -3.5449 -2.1650
6 8 6 10.7368 -0.0840
6 8 7 -19.5449 -1.7163
6 8 8 -1.5406 0.9111
6 8 9 -7.2974 0.1462
6 8 10 -11.8996 1.4893
6 8 11 18.6909 -0.6274
6 8 12 -6.9500 1.4944
6 8 13 24.5711 -2.3854
6 8 14 0.0733 1.2241
6 8 15 0.6836 -0.3665
6 8 16 0.9321 -3.1160
6 8 17 -20.5842 0.3861
6 8 18 -0.8884 -8.9494
6 8 19 -13.6025 -4.0809
6 8 20 -0.6132 -6.6664
6 8 21 3.9399 -6.9984
6 8 22 2.0473 -1.7892
6 10 0 -3.6586 3.6701
6 10 1 2.0608 -1.8875
6 10 2 -13.2289 2.4129
6 10 3 0.6474 -1.6268
6 10 4 -6.0004 0.7487
6 10 5 9.7387 0.3810
6 10 6 6.2966 0.5322
6 10 7 4.0549 0.0009
6 10 8 6.0489 0.1086
6 10 9 -18.3219 0.8925
6 10 10 -3.8005 -0.6151
6 10 11 -14.4488 3.5444
6 10 12 -4.1222 0.0925
6 10 13 14.1514 2.4423
6 10 14 7.2969 0.1951
6 10 15 15.9097 -3.0399
6 10 16 12.1478 -3.5561
6 10 17 -11.4492 -8.8239
6 12 0 10.0739 1.4258
6 12 1 -6.2512 4.9559
6 12 2 2.4624 -1.0109
6 12 3 -1.2749 2.0584
6 12 4 -11.6149 0.4558
6 12 5 7.5859 0.0514
6 12 6 -9.3325 0.5369
6 12 7 4.5506 -0.3166
6 12 8 -0.5728 -1.1446
6 12 9 -5.4863 2.2624
6 12 10 -5.4878 4.4767
6 12 11 -1.4426 2.3238
6 12 12 -11.4618 10.7415
6 12 13 10.8890 -8.5608
6 14 0 18.6848 -1.9892
6 14 1 -18.2023 4.5983
6 14 2 13.2575 -4.4544
7 1 0 -79.9346 -11.0944
7 1 1 58.8635 4.0608
7 1 2 -54.8652 -5.5135
7 1 3 32.4197 0.2088
7 1 4 -15.7071 -6.1173
7 1 5 -30.2269 -5.8357
7 1 6 26.5216 -6.7537
7 1 7 -46.3787 -10.9793
7 1 8 31.1307 -1.0264
7 1 9 -23.9283 -11.4139
7 1 10 -6.7218 4.1746
7 1 11 -10.5187 -8.5413
7 1 12 -31.6132 7.3605
7 1 13 -10.8463 -5.0408
7 1 14 -12.9420 10.8252
7 1 15 -3.2561 -0.1186
7 1 16 11.6655 9.4410
7 1 17 12.2866 5.5216
7 1 18 9.3221 4.4200
7 1 19 14.9759 9.4658
7 1 20 -3.3865 4.0068
7 1 21 0.5934 11.7892
7 1 22 -5.2339 5.4970
7 1 23 -8.1822 13.8288
7 1 24 0.1351 1.9327
7 1 25 -0.4432 15.2227
7 3 0 -38.0680 1.1330
7 3 1 80.1036 -0.4801
7 3 2 -2.1174 3.8283
7 3 3 66.9901 0.2782
7 3 4 28.8716 4.1950
7 3 5 -3.4628 0.1800
7 3 6 29.6948 2.0410
7 3 7 -19.5856 0.0959
7 3 8 21.1429 -0.9781
7 3 9 13.6298 1.9178
7 3 10 16.0336 -2.6006
7 3 11 29.7848 1.8345
7 3 12 10.6115 -2.5832
7 3 13 19.4871 -0.9231
7 3 14 4.2746 -2.0503
7 3 15 11.7297 -1.6176
7 3 16 -2.0318 -2.1308
7 3 17 11.6274 -0.9010
7 3 18 -5.2917 -3.4586
7 3 19 4.8090 -0.3298
7 3 20 -1.0166 -3.0998
7 3 21 -8.9332 2.0134
7 3 22 4.9605 1.7015
7 3 23 -13.5680 3.3724
7 3 24 2.4500 5.5447
7 3 25 -4.9032 2.0497
7 5 0 21.9360 1.2885
7 5 1 28.5216 0.6956
7 5 2 21.8935 2.3216
7 5 3 44.3968 0.4001
7 5 4 14.4850 1.7935
7 5 5 24.5816 -1.2783
7 5 6 -6.6720 1.0170
7 5 7 -13.1823 -2.8176
7 5 8 -12.8147 0.9379
7 5 9 -29.0830 -1.4756
7 5 10 4.7437 0.4287
7 5 11 -14.1548 -0.4153
7 5 12 20.6897 -2.4416
7 5 13 6.2362 -1.9593
7 5 14 16.6423 -4.9241
7 5 15 7.0583 -2.7138
7 5 16 5.3694 -3.7928
7 5 17 -7.2934 -1.1454
7 5 18 4.6221 -1.0612
7 5 19 -9.8128 1.3331
7 5 20 7.6719 2.9639
7 5 21 3.6412 2.9935
7 5 22 1.8259 7.9220
7 5 23 7.8117 1.6982
7 5 24 -5.5124 8.0132
7 7 0 5.5408 0.4834
7 7 1 -19.8763 1.5901
7 7 2 -10.6391 -1.6243
7 7 3 9.7668 0.9075
7 7 4 -20.9735 -3.2815
7 7 5 29.8658 0.6425
7 7 6 -8.6252 -2.4330
7 7 7 9.8566 0.3073
7 7 8 3.1855 -0.7391
7 7 9 -17.9717 0.8167
7 7 10 -0.6634 0.2194
7 7 11 -16.8595 2.0984
7 7 12 -6.4966 -0.3404
7 7 13 6.9301 1.7307
7 7 14 -7.6329 -0.0651
7 7 15 21.0176 0.0814
7 7 16 -7.9167 0.1898
7 7 17 11.1634 -1.2326
7 7 18 -5.2559 -4.6256
7 7 19 -1.8948 -4.4045
7 7 20 -0.9492 -6.5436
7 7 21 -1.8722 -9.5991
7 7 22 0.5343 3.6296
7 9 0 14.7699 2.3747
7 9 1 2.8708 -2.8585
7 9 2 -10.8853 4.1986
7 9 3 -1.1447 -1.9357
7 9 4 -31.8507 2.2961
7 9 5 -5.0424 0.1025
7 9 6 -21.3809 -1.6022
7 9 7 -1.5333 -0.5518
7 9 8 3.1698 -3.0954
7 9 9 -3.4919 -3.4342
7 9 10 13.6801 -1.1730
7 9 11 -12.9782 -4.9523
7 9 12 8.7734 0.0968
7 9 13 -6.1966 -5.2441
7 9 14 2.1339 2.0182
7 9 15 12.7401 -1.8298
7 9 16 -1.0428 6.9773
7 9 17 11.7110 5.1837
7 9 18 -4.3817 6.7583
7 9 19 -4.7475 5.5258
7 11 0 7.4434 -0.7031
7 11 1 4.7655 5.4900
7 11 2 13.3824 0.0050
7 11 3 -5.2643 0.5817
7 11 4 6.6231 -0.6957
7 11 5 -12.5244 -0.5269
7 11 6 -5.2713 0.2894
7 11 7 -0.2904 1.0775
7 11 8 -4.7129 -1.1180
7 11 9 5.6148 -3.2905
7 11 10 2.6307 -7.2135
7 11 11 -9.3334 -6.7397
7 11 12 2.0677 -7.6564
7 11 13 -14.7233 -0.4219
7 11 14 -0.9268 0.6807
7 11 15 -0.8091 7.9672
7 13 0 -6.5058 -1.8742
7 13 1 0.9181 -1.3294
7 13 2 10.9950 -4.0825
7 13 3 -4.9676 0.8363
7 13 4 14.1035 -6.5259
7 13 5 -5.3802 -2.9266
7 13 6 0.7738 -0.4711
7 13 7 -0.6193 -7.6422
8 0 0 -3.2163 12.1992
8 0 2 -2.1309 12.7783
8 0 4 0.4896 16.5379
8 0 6 31.7857 13.3421
8 0 8 85.2741 7.3949
8 0 10 97.5101 1.7396
8 0 12 46.0012 -7.9526
8 0 14 -8.7098 -14.9109
8 0 16 -16.1801 -15.3257
8 0 18 2.6695 -15.9104
8 0 20 11.9747 -11.8810
8 0 22 9.5894 -0.6308
8 0 24 5.0697 1.4980
8 2 0 -10.6257 -1.6627
8 2 1 -24.3690 -3.6060
8 2 2 -15.3174 -6.4302
8 2 3 54.5088 -0.4964
8 2 4 -10.8663 -5.7498
8 2 5 60.4984 4.0821
8 2 6 -3.5939 -4.6638
8 2 7 5.1225 6.5754
8 2 8 0.8739 -2.7596
8 2 9 -18.5270 8.3111
8 2 10 -4.3708 1.3558
8 2 11 -0.1425 10.9285
8 2 12 -20.5124 3.6776
8 2 13 11.2801 9.5048
8 2 14 -29.0827 3.1523
8 2 15 3.0626 3.3109
8 2 16 -15.8194 3.7273
8 2 17 0.2615 -1.3668
8 2 18 3.9949 4.8695
8 2 19 12.4600 -2.5743
8 2 20 9.9956 3.0149
8 2 21 18.2846 -2.0087
8 2 22 4.3287 1.0649
8 2 23 5.8451 -1.0001
8 2 24 -0.5811 2.9763
8 2 25 -4.1881 -2.2328
8 4 0 -9.5694 1.7309
8 4 1 -52.3878 -4.6899
8 4 2 -29.6194 0.2681
8 4 3 18.6881 -3.0887
8 4 4 -9.0410 -1.2381
8 4 5 54.1548 -0.2774
8 4 6 13.8351 -0.3945
8 4 7 31.0572 -0.0049
8 4 8 14.0422 0.7099
8 4 9 -3.5774 -1.1344
8 4 10 7.8746 0.6289
8 4 11 -18.7226 0.6796
8 4 12 8.6550 0.9940
8 4 13 -19.6002 2.4379
8 4 14 10.5219 1.6951
8 4 15 -13.6303 1.3809
8 4 16 6.3695 2.3977
8 4 17 -5.7261 0.2944
8 4 18 -1.2789 2.6331
8 4 19 -1.0451 -0.0558
8 4 20 -4.7126 0.3137
8 4 21 3.2144 0.0095
8 4 22 -1.5472 -2.0414
8 4 23 7.9540 0.2780
8 4 24 3.2267 -0.4426
8 6 0 7.6556 -0.7977
8 6 1 8.1602 1.6292
8 6 2 5.9339 0.4200
8 6 3 -9.4281 2.6843
8 6 4 3.8662 -0.3344
8 6 5 0.0969 2.0104
8 6 6 -3.7455 -2.1404
8 6 7 7.6315 -0.1237
8 6 8 -11.6959 -1.5760
8 6 9 -9.0833 -1.3662
8 6 10 -13.6289 2.0589
8 6 11 -25.6662 -0.0280
8 6 12 -7.7084 3.7482
8 6 13 -15.9228 1.9059
8 6 14 0.0639 0.8799
8 6 15 11.9229 2.1074
8 6 16 -2.0235 0.9041
8 6 17 25.6064 1.5140
8 6 18 -10.4692 4.6722
8 6 19 11.5609 1.1083
8 6 20 -9.5845 1.3889
8 6 21 -4.9223 -0.7371
8 8 0 6.3539 0.8660
8 8 1 1.0737 0.6481
8 8 2 23.5945 1.4910
8 8 3 -1.5876 0.9193
8 8 4 6.6949 1.1921
8 8 5 10.2082 2.8234
8 8 6 -14.6828 1.4975
8 8 7 22.4527 2.8217
8 8 8 -9.5321 1.1242
8 8 9 17.7709 -0.7985
8 8 10 4.4152 0.0416
8 8 11 -4.0594 -1.4447
8 8 12 4.5767 -0.9139
8 8 13 -22.4360 2.7074
8 8 14 -0.8952 -2.3655
8 8 15 -13.5753 3.1273
8 8 16 -1.6198 1.0849
8 8 17 10.3161 -0.5828
8 8 18 -1.1116 10.1337
8 8 19 16.5416 -1.1010
8 8 20 -1.9325 11.2294
8 10 0 -5.2479 -1.9713
8 10 1 -5.4497 2.8627
8 10 2 3.6216 2.3324
8 10 3 -2.0747 2.8683
8 10 4 1.6889 4.8434
8 10 5 -9.4223 -1.9850
8 10 6 -3.9581 1.8435
8 10 7 -15.0082 -2.5198
8 10 8 0.5500 -0.6230
8 10 9 -0.5593 1.8658
8 10 10 15.2671 2.0167
8 10 11 7.6903 3.6738
8 10 12 22.8548 3.8442
8 10 13 -8.4133 1.0403
8 10 14 14.4091 1.1400
8 10 15 -14.9924 -0.7570
8 10 16 2.0606 1.3828
8 12 0 -2.6775 -1.7705
8 12 1 10.1350 -7.2074
8 12 2 -7.7774 0.6040
8 12 3 9.7117 -0.1170
8 12 4 -0.3236 0.3550
8 12 5 -1.0550 7.9467
8 12 6 0.9624 0.7949
8 12 7 -8.8089 10.9433
8 12 8 -6.3691 6.8999
8 12 9 -0.7202 5.8997
8 12 10 -5.1646 6.3904
8 12 11 6.7141 -3.9584
8 12 12 0.6233 -4.6418
8 14 0 -7.0809 0.4731
8 14 1 10.4803 -8.3292
9 1 0 55.0773 -0.6653
9 1 1 -53.2605 7.8510
9 1 2 54.6564 -8.4675
9 1 3 -50.9633 2.9493
9 1 4 28.0800 -13.6868
9 1 5 6.1385 -2.8326
9 1 6 -13.9640 -11.0013
9 1 7 40.7014 -6.1022
9 1 8 -27.5077 -8.1011
9 1 9 32.8649 -8.7563
9 1 10 -1.0791 -5.1926
9 1 11 15.5796 -10.6558
9 1 12 21.4980 -0.5623
9 1 13 5.8913 -10.0984
9 1 14 9.2686 2.9591
9 1 15 -3.5491 -7.9034
9 1 16 -13.2774 7.1068
9 1 17 -16.5308 -4.6011
9 1 18 -15.2052 11.4713
9 1 19 -20.9195 -0.9555
9 1 20 -3.3041 8.9720
9 1 21 -7.2622 1.2523
9 1 22 2.5234 0.8059
9 1 23 8.8227 1.7282
9 1 24 0.1039 -4.4302
9 3 0 39.1271 3.1548
9 3 1 -43.3998 0.6931
9 3 2 2.9046 4.9908
9 3 3 -52.2687 0.5887
9 3 4 -28.3436 6.2444
9 3 5 0.4934 -0.5028
9 3 6 -26.6847 5.6683
9 3 7 18.2712 -1.0627
9 3 8 -10.1757 3.1703
9 3 9 -11.3735 -2.1043
9 3 10 1.9551 -0.5333
9 3 11 -28.9967 -1.0564
9 3 12 7.4600 -3.4306
9 3 13 -19.4686 2.5319
9 3 14 6.2011 -4.7173
9 3 15 -10.2543 2.1743
9 3 16 0.2524 -4.9908
9 3 17 -9.1233 -1.5563
9 3 18 -3.9360 -2.8533
9 3 19 -2.5377 -1.7726
9 3 20 -4.0556 -0.2892
9 3 21 10.6563 0.8125
9 3 22 -3.5495 -3.2590
9 3 23 14.8154 2.3681
9 3 24 -3.5171 -7.8386
9 5 0 -20.3628 -3.0775
9 5 1 -3.9902 -0.0698
9 5 2 -27.1897 -3.0658
9 5 3 -27.1405 -0.5631
9 5 4 -20.9604 -0.9351
9 5 5 -22.5962 0.1743
9 5 6 2.4496 2.0310
9 5 7 9.3523 1.2095
9 5 8 14.4618 3.0352
9 5 9 31.8943 -0.7473
9 5 10 4.4461 1.1613
9 5 11 25.0488 -3.1671
9 5 12 -10.1245 0.3465
9 5 13 2.3810 -1.2406
9 5 14 -11.7049 0.8316
9 5 15 -10.2191 1.2536
9 5 16 -2.0947 -1.8663
9 5 17 -0.3669 -2.1364
9 5 18 4.6620 -5.2856
9 5 19 14.0060 -9.2721
9 5 20 5.0035 -6.2747
9 5 21 11.5127 -12.4470
9 5 23 1.9591 -8.8947
9 7 0 -12.0116 1.8451
9 7 1 -10.9405 1.2822
9 7 2 -4.4070 0.9116
9 7 3 -13.4511 0.6609
9 7 4 8.4698 -0.5224
9 7 5 -18.9912 -0.1559
9 7 6 4.7819 -1.8029
9 7 7 -6.3501 0.0060
9 7 8 -5.8665 -1.9037
9 7 9 9.8887 1.2052
9 7 10 -4.3998 -1.6109
9 7 11 10.0842 1.6101
9 7 12 1.3827 -0.2614
9 7 13 -4.6834 1.7107
9 7 14 1.1232 0.8228
9 7 15 -17.3514 1.7702
9 7 16 0.5534 0.8086
9 7 17 -11.9205 -0.4702
9 7 18 1.0783 6.3859
9 7 19 1.5876 -2.9824
9 7 20 -0.9746 14.7066
9 7 21 3.4899 -1.2766
9 9 0 -8.5161 -1.2637
9 9 1 5.3681 -4.6703
9 9 2 7.9094 -2.7347
9 9 3 9.2611 -2.7475
9 9 4 26.8477 -0.6121
9 9 5 12.7629 -1.0913
9 9 6 21.6853 3.5954
9 9 7 6.0471 0.1205
9 9 8 1.7172 3.4016
9 9 9 -4.4229 0.4351
9 9 10 -8.9333 -1.3937
9 9 11 -4.1138 -0.0186
9 9 12 -9.0599 -1.7785
9 9 13 -5.5909 2.5223
9 9 14 -8.4925 1.2966
9 9 15 -17.3933 4.8146
9 9 16 -5.2152 -3.0121
9 11 0 1.5352 -0.4800
9 11 1 -8.8244 -2.2371
9 11 2 -1.0654 -2.5883
9 11 3 -3.4984 1.4454
9 11 4 -1.6242 -1.4115
9 11 5 12.5180 0.9366
9 11 6 3.5339 -1.0366
9 11 7 13.5792 -5.2489
9 11 8 2.8171 -0.8050
9 11 9 3.0210 -2.7929
9 11 10 -3.7528 6.2989
9 11 11 6.0733 9.5731
9 11 12 -3.9800 14.3516
9 11 13 14.3746 15.4787
9 11 14 -0.5859 11.9040
9 13 0 13.1124 -0.1688
9 13 1 -4.7578 1.2283
9 13 2 0.7133 2.7608
9 13 3 -5.7849 -2.0273
9 13 4 -8.2145 13.2661
9 13 5 -0.8459 3.6156
9 13 6 -1.7778 13.3933
10 0 0 14.5126 -23.5928
10 0 2 -5.0359 -0.6026
10 0 4 4.0307 14.2505
10 0 6 -0.5733 19.4852
10 0 8 -36.3120 17.7995
10 0 10 -52.5168 10.5164
10 0 12 -20.4395 5.4390
10 0 14 17.7413 1.8462
10 0 16 21.1016 -4.1098
10 0 18 3.3653 -7.7666
10 0 20 -7.9708 -13.1972
10 0 22 -10.6230 -24.3313
10 0 24 -10.9979 -24.1329
10 2 0 24.9565 2.1604
10 2 1 24.6233 -1.9449
10 2 2 18.0613 2.9729
10 2 3 -29.2265 -2.2257
10 2 4 14.9221 0.2445
10 2 5 -48.8281 -1.9570
10 2 6 10.8885 -1.2228
10 2 7 -15.1993 1.3486
10 2 8 1.0930 -1.1708
10 2 9 4.9712 5.6583
10 2 10 -8.1901 -3.1206
10 2 11 -6.0912 6.8216
10 2 12 -5.0661 -4.3069
10 2 13 -13.9913 7.9178
10 2 14 7.6267 -0.9254
10 2 15 -5.3368 10.0834
10 2 16 13.5214 2.9620
10 2 17 2.0134 8.1985
10 2 18 5.1043 3.6141
10 2 19 -6.1816 3.1517
10 2 20 -7.1398 4.1478
10 2 21 -17.1568 -0.3525
10 2 22 -9.4453 4.4564
10 2 23 -12.2714 -2.0920
10 2 24 -2.4974 -0.2849
10 4 0 -14.1886 -3.9455
10 4 1 20.2296 -0.6422
10 4 2 10.6560 -2.1539
10 4 3 -12.9931 1.8101
10 4 4 -1.8012 0.4975
10 4 5 -33.5574 1.3734
10 4 6 -23.3793 0.3656
10 4 7 -16.2231 -0.3965
10 4 8 -27.2880 -0.4156
10 4 9 6.0113 -0.4191
10 4 10 -20.1352 0.5503
10 4 11 10.3525 -1.0148
10 4 12 -13.1989 0.4983
10 4 13 8.4564 -0.9577
10 4 14 -8.0569 -0.6392
10 4 15 6.7286 2.0312
10 4 16 -4.4026 -0.8383
10 4 17 0.4515 2.5360
10 4 18 -4.0310 0.0297
10 4 19 -6.2448 -3.1611
10 4 20 -6.5470 4.1900
10 4 21 -7.3548 -9.6535
10 4 22 -6.9285 9.9694
10 4 23 -5.4374 -10.3272
10 6 0 10.0718 -0.5547
10 6 1 -17.3936 2.2502
10 6 2 9.7840 -0.3560
10 6 3 -2.6549 2.4209
10 6 4 -0.3128 -0.2450
10 6 5 -6.1509 1.9105
10 6 6 -1.1362 -0.6329
10 6 7 -15.6361 0.8141
10 6 8 6.2217 -1.6363
10 6 9 -5.9963 -0.7859
10 6 10 9.8559 -2.8990
10 6 11 12.3741 -2.7513
10 6 12 6.7434 -1.5796
10 6 13 18.2543 -4.6767
10 6 14 -0.3044 5.3064
10 6 15 6.4106 -4.6862
10 6 16 -3.4699 9.1515
10 6 17 -8.7810 -2.2483
10 6 18 1.3544 1.1519
10 6 19 -8.5965 0.0908
10 6 20 5.6191 -7.1726
10 6 21 1.1667 1.4969
10 8 0 -1.5263 0.1495
10 8 1 0.2126 -1.4352
10 8 2 -13.7371 0.2559
10 8 3 1.5826 -1.5702
10 8 4 -1.6181 1.8285
10 8 5 -2.0802 -2.2584
10 8 6 17.6051 1.7372
10 8 7 -4.8061 -1.5820
10 8 8 13.7445 1.5668
10 8 9 -1.9716 1.6116
10 8 10 -1.0892 1.3453
10 8 11 5.9307 1.7723
10 8 12 -0.5645 -1.0136
10 8 13 16.2924 -3.5873
10 8 14 7.2088 -2.1369
10 8 15 14.3693 -4.6379
10 8 16 5.6279 -3.2303
10 8 17 -1.8469 2.4031
10 8 18 1.8608 -9.7676
10 8 19 -8.3923 7.1877
10 10 0 -4.0844 -2.4327
10 10 1 -2.7518 -0.5543
10 10 2 -4.4157 -3.9108
10 10 3 -6.9411 -2.4163
10 10 4 2.7876 -4.8469
10 10 5 -6.9302 0.9990
10 10 6 8.8651 -0.4302
10 10 7 1.7995 3.0878
10 10 8 3.3148 3.2941
10 10 9 0.2304 -1.1021
10 10 10 -11.1971 -3.8315
10 10 11 -7.4790 -7.1363
10 10 12 -18.3876 -15.1099
10 10 13 0.3870 -8.6248
10 10 14 -12.2571 -15.1284
10 10 15 10.1580 -5.2252
10 12 0 -7.3068 4.0495
10 12 1 3.4124 8.1273
10 12 2 4.5637 -0.4576
10 12 3 -5.9982 -1.4842
10 12 4 6.8576 -3.1611
10 12 5 -10.7448 -13.8400
10 12 6 6.6575 -2.3615
10 12 7 -3.2381 -21.0558
10 12 8 10.4119 -6.8836
10 12 9 0.3462 -20.5636
10 12 10 7.1678 -10.7871
11 1 0 -13.7351 1.7715
11 1 1 10.4425 -1.3316
11 1 2 -25.4960 0.3645
11 1 3 22.0424 8.6232
11 1 4 -34.1756 0.2631
11 1 5 -0.4413 11.7113
11 1 6 -13.7362 -5.9085
11 1 7 -10.1037 6.7152
11 1 8 4.7514 -10.5069
11 1 9 5.3503 -0.5433
11 1 10 -4.3448 -9.6417
11 1 11 18.7909 -5.9424
11 1 12 -16.3963 -7.6401
11 1 13 16.4053 -7.9063
11 1 14 -6.8265 -4.6533
11 1 15 6.5164 -6.4832
11 1 16 9.0815 -1.2857
11 1 17 3.1222 -5.9816
11 1 18 10.2690 0.0911
11 1 19 8.2967 -7.3806
11 1 20 1.3674 1.9361
11 1 21 7.7982 -6.4384
11 1 22 -3.6645 4.9027
11 1 23 -2.2652 -3.9820
11 3 0 -6.2654 3.3123
11 3 1 20.9527 -0.7455
11 3 2 9.2782 2.1309
11 3 3 27.3089 -3.9952
11 3 4 20.1497 0.5113
11 3 5 -8.9107 -1.7991
11 3 6 10.5652 0.8937
11 3 7 -23.7613 0.9824
11 3 8 -0.9344 2.8451
11 3 9 -1.6245 2.5515
11 3 10 -0.2703 4.9309
11 3 11 13.4525 0.9325
11 3 12 3.8656 4.9648
11 3 13 9.3774 -4.1601
11 3 14 1.9592 1.9837
11 3 15 8.5040 -4.5824
11 3 16 -1.3698 -1.2759
11 3 17 14.8118 1.4810
11 3 18 0.7289 -3.8443
11 3 19 12.0676 3.7453
11 3 20 3.3625 -5.1698
11 3 21 -3.8921 -1.0673
11 3 22 0.8973 -0.3275
11 3 23 -14.7809 -5.6113
11 5 0 -5.2750 -2.5288
11 5 1 -12.4964 1.4871
11 5 2 15.5237 -1.4887
11 5 3 -4.2168 0.5908
11 5 4 28.9834 0.2904
11 5 5 3.8691 0.4101
11 5 6 16.6745 1.0644
11 5 7 -3.2414 -0.3375
11 5 8 -0.1017 0.4510
11 5 9 -10.4494 -0.7915
11 5 10 -5.6838 1.3978
11 5 11 -6.5322 -0.6304
11 5 12 -4.4525 1.9976
11 5 13 1.6415 -2.4522
11 5 14 -3.1133 -0.8528
11 5 15 6.1588 -3.6024
11 5 16 -2.7254 -2.2091
11 5 17 2.0804 3.3193
11 5 18 -0.6803 -1.1819
11 5 19 -7.9895 16.4405
11 5 20 1.3567 -3.6879
11 5 21 -12.0271 23.3571
11 7 0 -2.1919 0.9875
11 7 1 15.5665 0.4325
11 7 2 3.9285 1.3904
11 7 3 7.6041 -0.4496
11 7 4 -0.8817 2.0921
11 7 5 9.8846 -1.1485
11 7 6 -6.5232 2.6824
11 7 7 4.8638 0.6479
11 7 8 -4.9581 1.7219
11 7 9 -4.1347 2.7900
11 7 10 -4.5887 1.0244
11 7 11 -6.3961 4.3128
11 7 12 -4.1092 -0.0139
11 7 13 -0.8884 4.8194
11 7 14 2.2551 -2.0562
11 7 15 7.6753 2.7295
11 7 16 4.5675 -0.4559
11 7 17 7.1748 0.1055
11 7 18 -2.8175 2.3527
11 7 19 -3.7125 -0.7205
11 7 20 -8.0272 -0.4352
11 9 0 17.9543 0.5294
11 9 1 4.9935 0.1977
11 9 2 6.3727 0.8145
11 9 3 -0.0234 1.2298
11 9 4 -9.8457 -0.0526
11 9 5 -9.1704 2.7925
11 9 6 -6.9119 -3.0946
11 9 7 -11.7750 3.4444
11 9 8 8.2041 -2.5037
11 9 9 -1.2537 4.5259
11 9 10 9.5723 5.4241
11 9 11 5.7432 6.8193
11 9 14 -1.2124 4.1891
11 9 15 11.7436 -3.4140
11 9 16 5.8093 -0.3760
11 11 0 -14.3743 2.1689
11 11 1 1.3165 5.4885
11 11 2 -14.5668 4.6498
11 11 3 13.1975 -0.4346
11 11 4 -9.4922 2.7719
11 11 5 7.3029 -4.1046
11 11 6 -9.8258 -0.1824
11 11 7 -2.2537 2.0601
11 11 8 -8.6826 1.3577
11 11 9 2.3449 5.0697
11 11 10 -1.5223 0.1343
11 11 11 7.0508 -5.8135
11 11 12 2.1386 -9.1488
11 13 0 -8.1132 3.8198
11 13 1 -5.8472 -9.2756
11 13 2 -5.4759 3.1240
11 13 3 3.8100 -2.7704
11 13 4 1.1463 -9.0063
12 0 0 -18.3891 22.7329
12 0 2 22.9279 4.1260
12 0 4 5.7546 -0.9348
12 0 6 -28.7997 5.9873
12 0 8 -20.3335 11.9502
12 0 10 6.4871 15.7010
12 0 12 6.3041 15.2557
12 0 14 -7.2091 10.5584
12 0 16 -4.3987 5.4917
12 0 18 6.6285 -1.2879
12 0 20 8.5049 -3.2987
12 0 22 5.3639 8.3538
12 2 0 -54.9987 1.2420
12 2 1 -4.7970 -4.8854
12 2 2 -23.0345 1.4799
12 2 3 15.8847 -9.5500
12 2 4 -0.4273 -0.0693
12 2 5 18.4868 -9.9871
12 2 6 6.2214 -3.1543
12 2 7 -10.4591 -8.4046
12 2 8 9.5471 -5.7529
12 2 9 -21.6496 -5.9630
12 2 10 13.1888 -3.4358
12 2 11 -5.2364 -0.6247
12 2 12 9.4914 1.1714
12 2 13 9.3568 3.5251
12 2 14 -2.8979 0.7328
12 2 15 10.0288 4.3863
12 2 16 -15.3979 -3.5360
12 2 17 3.7229 6.8906
12 2 18 -16.3166 -5.3043
12 2 19 2.0865 8.7517
12 2 20 -2.7965 -5.5183
12 2 21 7.6579 4.4623
12 2 22 10.3986 -6.4833
12 4 0 21.7593 1.6753
12 4 1 2.9375 3.6259
12 4 2 0.9823 1.0079
12 4 3 9.5984 0.9659
12 4 4 3.4150 -1.8361
12 4 5 14.9665 -1.2416
12 4 6 11.7374 -1.5433
12 4 7 4.5098 -0.2733
12 4 8 6.4022 0.7657
12 4 9 -2.5767 -0.1575
12 4 10 -2.5168 -0.6626
12 4 11 4.9536 -0.5225
12 4 12 -1.4173 -3.2755
12 4 13 9.2130 -0.7797
12 4 14 6.3233 -3.2481
12 4 15 0.1052 -2.8074
12 4 16 9.0570 -1.9228
12 4 17 -8.8590 -1.3373
12 4 18 6.1152 0.1352
12 4 19 -6.1098 9.0775
12 4 20 6.4019 0.3498
12 4 21 1.8046 20.3322
12 6 0 10.0693 0.1180
12 6 1 28.1543 -3.4931
12 6 2 -7.8968 0.0184
12 6 3 14.7311 -1.2145
12 6 4 -4.7076 -0.7391
12 6 5 8.6721 0.0701
12 6 6 3.5900 -1.9000
12 6 7 14.8788 1.1833
12 6 8 5.1443 -3.1079
12 6 9 9.9545 3.0990
12 6 10 3.6814 -3.3486
12 6 11 -3.6620 3.1415
12 6 12 -0.2110 -1.7962
12 6 13 -9.8281 0.6813
12 6 14 -3.8692 -3.7891
12 6 15 -4.3852 -3.1227
12 6 16 -2.2515 -8.9904
12 6 17 6.6157 -7.8355
12 6 18 1.8683 -4.9722
12 6 19 10.9806 -10.4673
12 8 0 -10.4574 5.3402
12 8 1 -9.5296 -0.0621
12 8 2 -2.7615 1.5097
12 8 3 -6.3356 -0.8037
12 8 4 -3.2658 -4.5271
12 8 5 -3.5426 -0.8729
12 8 6 -11.9405 -3.9161
12 8 7 -1.1491 -1.9886
12 8 8 -8.3789 1.4065
12 8 9 2.0020 -5.6739
12 8 10 5.6886 4.6515
12 8 11 7.4312 -7.4500
12 8 12 6.9357 5.7394
12 8 13 4.7487 -1.0958
12 8 14 -3.0810 3.6404
12 8 15 -4.4494 7.0435
12 8 16 -4.7651 -1.8857
12 8 17 -4.8958 7.1360
12 10 0 10.0917 -4.5519
12 10 1 3.8401 0.3207
12 10 2 7.5934 -1.7578
12 10 3 2.5396 0.6026
12 10 4 -2.7791 1.2945
12 10 5 11.9764 -1.9082
12 10 6 -14.6486 -2.0772
12 10 7 11.5987 -3.3811
12 10 8 -15.3678 -9.6234
12 10 9 4.6887 0.5712
12 10 10 -2.2498 -6.4457
12 10 11 3.7151 7.9014
12 10 12 7.6599 9.4652
12 12 0 13.1648 2.2148
12 12 1 -10.1098 -8.7005
12 12 2 5.8829 1.3727
12 12 3 -5.9336 -1.1772
12 12 4 1.9575 0.4372
12 12 5 3.8401 11.8041
12 12 6 1.3222 -1.7510
12 12 7 2.8386 20.0427
12 12 8 -3.3518 0.8278
13 1 0 -16.6310 4.4558
13 1 1 8.0664 2.0091
13 1 2 -14.2936 5.3685
13 1 3 -6.4982 3.1857
13 1 4 23.8794 -0.7810
13 1 5 2.0556 6.2681
13 1 6 36.1278 -1.9223
13 1 7 5.4513 9.1701
13 1 8 20.7138 -1.2789
13 1 9 -4.1269 7.8241
13 1 10 12.9646 -5.2086
13 1 11 -9.3740 3.7222
13 1 12 12.3464 -8.9400
13 1 13 -7.2813 -1.3006
13 1 14 1.4756 -9.8234
13 1 15 -1.3230 -8.0053
13 1 16 -9.5907 -9.0327
13 1 17 5.7747 -10.7959
13 1 18 -5.8037 -5.0281
13 1 19 5.6407 -6.3802
13 1 20 4.5700 0.4423
13 1 21 0.5435 -2.4220
13 1 22 8.6035 3.2102
13 3 0 1.8577 0.2802
13 3 1 -6.7983 3.7113
13 3 2 -18.3655 -2.5853
13 3 3 0.9125 5.4325
13 3 4 -32.0969 -0.2328
13 3 5 28.6122 1.8695
13 3 6 -20.7046 2.2586
13 3 7 31.6426 -1.1100
13 3 8 -0.5305 3.6871
13 3 9 3.8308 -1.3205
13 3 10 6.2024 4.9009
13 3 11 -13.9941 0.7375
13 3 12 -0.9411 5.9184
13 3 13 -11.9390 4.5219
13 3 14 -4.8015 6.8434
13 3 15 -8.9263 1.9842
13 3 16 2.1118 5.8190
13 3 17 -10.3650 -9.3816
13 3 18 6.0815 3.0299
13 3 19 -8.9809 -15.6351
13 3 20 0.1272 1.6940
13 3 21 0.4500 -8.7121
13 5 0 13.5182 -0.8272
13 5 1 15.1105 -0.8713
13 5 2 7.7652 -0.9466
13 5 3 22.8895 -0.4598
13 5 4 -5.8434 -0.7485
13 5 5 7.3961 1.0544
13 5 6 -3.0548 -0.4425
13 5 7 -5.2894 2.4956
13 5 8 5.2758 1.4801
13 5 9 -9.0361 2.0648
13 5 10 5.6255 1.9467
13 5 11 -10.4049 -1.3148
13 5 12 1.2781 0.6703
13 5 13 -7.4233 -3.2234
13 5 14 -1.6656 3.6437
13 5 15 -0.7823 -0.9038
13 5 16 -2.2408 7.6046
13 5 17 2.4605 -1.3989
13 5 18 -3.2930 5.3511
13 5 19 2.5270 -9.1995
13 5 20 -3.5394 2.0236
13 7 0 7.5399 0.3274
13 7 1 -15.8743 -1.1915
13 7 2 -0.4230 1.3300
13 7 3 -1.7537 -1.2958
13 7 4 -6.6842 1.1329
13 7 5 -1.5479 -1.5436
13 7 6 -6.3732 -0.5758
13 7 7 -3.7351 -5.4534
13 7 8 -7.0850 -0.6822
13 7 9 -3.0885 -6.8817
13 7 10 -5.0105 -0.8559
13 7 11 -5.2012 -1.6808
13 7 12 2.1645 -2.6652
13 7 13 -8.1174 4.3557
13 7 14 5.2665 -2.2895
13 7 15 -10.0805 6.6992
13 7 16 3.7628 -1.6211
13 7 17 -8.9776 5.4423
13 7 18 4.8362 -4.5518
13 9 0 -7.6108 -0.4643
13 9 1 -0.7562 1.8955
13 9 2 -8.9947 0.7267
13 9 3 -3.9588 0.7770
13 9 4 -2.6633 0.9045
13 9 5 -0.0371 -0.1361
13 9 6 1.5115 0.4635
13 9 7 8.1731 0.3367
13 9 8 -1.8850 -2.0819
13 9 9 4.9586 -0.5413
13 9 10 -0.0712 -9.3497
13 9 11 -3.0421 -6.2865
13 9 12 8.8911 -13.0416
13 9 13 -3.0119 -10.1821
13 9 14 7.1688 -3.8515
13 11 0 11.1678 -2.5474
13 11 1 3.8388 -1.7192
13 11 2 11.0188 -4.8280
13 11 3 -9.9902 8.3417
13 11 4 5.3898 -4.7817
13 11 5 -15.9945 12.8822
13 11 6 5.8137 1.4795
13 11 7 -7.5696 3.5958
13 11 8 6.5889 6.3774
13 11 9 -2.0365 -7.7850
13 11 10 1.7636 5.5273
13 13 0 5.6308 -10.9192
13 13 1 16.0186 6.3657
14 0 0 43.9202 -29.2447
14 0 2 -15.9711 -16.4382
14 0 4 -34.4762 -7.8263
14 0 6 -5.2845 -7.3721
14 0 8 7.6706 -1.6116
14 0 10 -5.8010 6.7610
14 0 12 -7.3150 11.4023
14 0 14 4.5742 12.6681
14 0 16 2.4744 11.2093
14 0 18 -10.5597 12.0457
14 0 20 -13.3190 13.2991
14 2 0 54.8471 -5.9330
14 2 1 -5.7033 -1.1693
14 2 2 28.2004 0.5628
14 2 3 -5.2071 -2.2479
14 2 4 4.1455 4.0472
14 2 5 2.9325 -6.3584
14 2 6 2.7143 3.3269
14 2 7 24.4597 -8.4546
14 2 8 6.7432 0.0872
14 2 9 19.9813 -5.9798
14 2 10 3.3096 -5.1313
14 2 11 -3.8785 -3.7635
14 2 12 0.3223 -8.0156
14 2 13 -13.1973 -1.1676
14 2 14 2.8769 -1.7489
14 2 15 -10.1588 2.4528
14 2 16 8.4969 9.4786
14 2 17 -5.8896 -0.2689
14 2 18 13.1982 13.6648
14 2 19 -0.6343 -6.9596
14 2 20 9.4859 10.0714
14 2 21 0.2456 -6.4125
14 4 0 -30.9355 0.1494
14 4 1 -7.9505 -0.3279
14 4 2 -9.4983 -0.6109
14 4 3 -13.3066 0.7060
14 4 4 0.0352 1.0325
14 4 5 -11.3579 1.5526
14 4 6 -4.6243 1.0920
14 4 7 2.9810 -1.0477
14 4 8 -4.1967 -1.2327
14 4 9 11.8404 -2.2184
14 4 10 5.2760 0.5445
14 4 11 3.1088 -1.2411
14 4 12 12.5045 4.1023
14 4 13 -10.6851 -0.5381
14 4 14 8.3328 2.3568
14 4 15 -13.4657 2.2908
14 4 16 -0.0588 -2.4264
14 4 17 -3.8777 4.1857
14 4 18 -2.1958 -5.7912
14 4 19 4.5368 -3.0297
14 4 20 -3.1625 -6.4600
14 6 0 -14.8762 1.4703
14 6 1 -18.7344 -0.0212
14 6 2 -1.2064 0.7321
14 6 3 -11.1075 -0.6072
14 6 4 0.5562 0.8116
14 6 5 3.1021 0.7100
14 6 6 -1.3247 1.0033
14 6 7 1.0731 2.3203
14 6 8 2.7470 -0.8663
14 6 9 -1.5128 0.6131
14 6 10 6.1951 -3.8962
14 6 11 2.5655 -0.3376
14 6 12 7.2198 -7.6114
14 6 13 2.7425 1.7451
14 6 14 8.6121 -6.5843
14 6 15 -1.1129 3.1422
14 6 16 7.7154 4.5597
14 6 17 -2.5035 2.9169
14 6 18 2.5647 14.2695
14 8 0 1.6106 -2.3089
14 8 1 1.5748 1.8043
14 8 2 8.5148 -1.4558
14 8 3 4.1994 1.8607
14 8 4 8.7016 3.0799
14 8 5 2.0498 1.8300
14 8 6 6.4543 3.3634
14 8 7 -5.2210 2.5857
14 8 8 -0.6083 -1.6116
14 8 9 -9.5057 3.1701
14 8 10 -11.3430 -4.5917
14 8 11 -11.8345 2.5873
14 8 12 -12.5108 -4.4689
14 8 13 -9.9179 -1.8105
14 8 14 -3.3511 -3.5155
14 8 15 -1.5244 -7.1964
14 10 0 6.1330 -0.1624
14 10 1 -1.8488 0.2140
14 10 2 4.2785 1.2281
14 10 3 3.8800 1.5901
14 10 4 1.1721 4.7993
14 10 5 -4.2120 2.8819
14 10 6 2.8776 9.1068
14 10 7 -9.3021 1.3514
14 10 8 6.1612 14.2346
14 10 9 -6.0289 -2.0472
14 10 12 -9.2767 -3.1397
14 12 0 -11.9758 3.5467
14 12 1 4.8757 11.6053
14 12 2 -4.4603 6.3881
14 12 3 6.8048 8.1561
14 12 4 -0.2031 6.5283
14 12 5 -0.5566 -1.4126
15 1 0 7.0289 -1.2923
15 1 1 -18.5809 -1.5592
15 1 2 30.9672 0.1389
15 1 3 -20.7152 3.4093
15 1 4 5.0825 9.7125
15 1 5 -31.9914 6.8933
15 1 6 -21.1120 11.4848
15 1 7 -24.1202 6.7127
15 1 8 -18.9563 4.2712
15 1 9 2.1691 6.6957
15 1 10 -11.8080 -1.7266
15 1 11 13.4879 5.9966
15 1 12 -11.8962 -6.4470
15 1 13 8.0255 3.3926
15 1 14 -4.5012 -9.0878
15 1 15 1.5504 4.3387
15 1 16 8.1940 -3.4962
15 1 17 -5.9683 6.6493
15 1 18 8.1699 6.0873
15 1 19 -10.6380 3.3956
15 1 20 -1.8660 9.8668
15 3 0 4.3758 0.4026
15 3 1 5.4580 -1.4263
15 3 2 5.7111 0.0658
15 3 3 4.8479 -1.3429
15 3 4 9.8287 -3.2814
15 3 5 -11.4799 0.5088
15 3 6 2.6026 -3.9585
15 3 7 -10.0564 0.1015
15 3 8 -10.6549 -1.4866
15 3 9 11.1141 -0.7474
15 3 10 -16.7812 0.4375
15 3 11 14.5937 1.7933
15 3 12 -7.5001 0.2218
15 3 13 2.4071 3.9049
15 3 14 7.9638 -2.6466
15 3 15 -1.1118 6.7090
15 3 16 9.4724 -5.9919
15 3 17 1.2358 14.3156
15 3 18 -1.3223 -7.1464
15 3 19 1.6441 17.5603
15 5 0 -12.1072 -0.7421
15 5 1 -13.2353 -2.7190
15 5 2 -21.4289 -0.2558
15 5 3 -25.5858 0.0094
15 5 4 -10.7423 -1.2958
15 5 5 -18.0914 0.8418
15 5 6 -0.7277 -1.2080
15 5 7 -7.7543 0.9258
15 5 8 3.9066 -1.8378
15 5 9 -1.5913 1.2818
15 5 10 6.3746 -1.8326
15 5 11 7.9032 3.5396
15 5 12 5.2443 2.3783
15 5 13 16.9500 5.2144
15 5 14 0.5488 5.0763
15 5 15 13.0956 1.9440
15 5 16 -5.0684 3.2794
15 5 17 1.3702 -1.2873
15 5 18 -5.8103 3.7880
15 7 0 1.3601 -3.3587
15 7 1 12.5259 1.5342
15 7 2 -0.0383 -1.8867
15 7 3 -11.5723 1.8693
15 7 4 5.2290 -1.6985
15 7 5 -12.6978 -2.0973
15 7 6 8.9593 -0.8397
15 7 7 1.9520 -1.9187
15 7 8 10.1349 0.3412
15 7 9 8.0830 0.6996
15 7 10 6.9704 2.0581
15 7 11 6.6541 -1.5083
15 7 12 -0.5684 4.6751
15 7 13 5.8332 -4.8022
15 7 14 -5.2347 2.4861
15 7 15 6.5066 -3.5785
15 7 16 -4.2716 -4.9848
15 9 0 -18.7502 0.2068
15 9 1 -8.6474 -0.2914
15 9 2 -4.2949 -0.6919
15 9 3 -0.5404 -3.6061
15 9 4 8.4312 -0.8498
15 9 5 4.7136 -3.1225
15 9 6 9.1199 1.0437
15 9 7 -0.3685 0.6381
15 9 8 6.7998 3.1123
15 9 9 -2.0524 4.1040
15 9 10 5.3993 6.3357
15 9 11 3.3287 6.9347
15 9 12 -0.4355 9.0417
15 11 0 -9.6851 0.0830
15 11 1 1.3808 -7.8738
15 11 2 -7.0835 -0.3443
15 11 3 3.6649 -15.8187
15 11 4 5.0700 2.6594
15 11 5 7.7406 -20.1653
15 11 6 7.1417 0.4262
15 11 7 2.6182 -13.5391
15 11 8 0.9020 -6.6601
16 0 0 -34.8257 28.2441
16 0 2 6.6887 2.0040
16 0 4 32.8910 -17.7301
16 0 6 13.4220 -16.2573
16 0 8 -11.4068 -9.8169
16 0 10 -9.5488 -4.5364
16 0 12 -0.4657 2.1816
16 0 14 -4.5363 6.5695
16 0 16 -8.1293 7.9763
16 0 18 -0.9724 5.4128
16 2 0 -34.5836 -1.1610
16 2 1 10.8638 -1.2171
16 2 2 -31.0047 -2.4390
16 2 3 23.7811 -0.9949
16 2 4 -11.9249 -1.1859
16 2 5 18.6293 1.1762
16 2 6 -3.3716 1.9564
16 2 7 -18.9015 0.6909
16 2 8 -0.9131 2.7450
16 2 9 -29.4892 -6.4371
16 2 10 5.4688 1.9122
16 2 11 -2.6804 -12.2168
16 2 12 6.0042 1.1418
16 2 13 12.7104 -11.5947
16 2 14 -2.8355 -4.3561
16 2 15 10.1137 -5.9345
16 2 16 -8.6004 -13.7502
16 2 17 8.6859 7.5197
16 2 18 -7.1066 -16.0509
16 2 19 4.8347 22.2890
16 4 0 31.3188 1.2320
16 4 1 -7.8402 2.4762
16 4 2 20.3429 1.5281
16 4 3 -13.4192 -1.0170
16 4 4 5.5882 -1.0583
16 4 5 -11.3121 -2.3262
16 4 6 3.7913 -2.5286
16 4 7 -10.7748 1.4613
16 4 8 6.0156 1.7909
16 4 9 -6.6542 4.2312
16 4 10 0.7314 4.5027
16 4 11 3.8635 3.1246
16 4 12 -12.3354 1.5357
16 4 13 13.5102 1.6099
16 4 14 -18.6601 -0.9030
16 4 15 19.4043 -2.6936
16 4 16 -10.9670 -0.7612
16 4 17 15.6634 -9.0249
16 6 0 11.7733 -1.6305
16 6 1 12.3898 -0.9365
16 6 2 5.6726 0.0674
16 6 3 17.5179 0.2479
16 6 4 -6.2663 3.3868
16 6 5 4.7278 0.6804
16 6 6 -17.0001 4.3271
16 6 7 -0.3820 -0.9871
16 6 8 -19.5139 3.5167
16 6 9 -0.7914 0.1241
16 6 10 -10.4145 1.1452
16 6 11 -8.3584 1.7165
16 6 12 -0.2056 0.4805
16 6 13 -12.8423 0.7332
16 6 14 1.3151 2.3839
16 6 15 -6.2221 0.6191
16 6 16 -1.9082 -1.1497
16 8 0 -1.7469 3.5684
16 8 1 18.7062 -0.8664
16 8 2 -13.3875 1.3024
16 8 3 13.3293 1.0897
16 8 4 -16.5362 -4.7131
16 8 5 1.5300 1.8132
16 8 6 -10.0536 -7.4415
16 8 7 -1.2567 -0.3730
16 8 8 -0.8566 -1.2153
16 8 9 2.0259 -1.0740
16 8 10 4.6728 8.8975
16 8 11 6.3256 -0.3334
16 8 12 3.8905 15.1052
16 8 13 10.3079 -0.0949
16 10 0 -6.7876 4.2374
16 10 1 -3.8518 1.6382
16 10 2 -15.1867 1.1812
16 10 3 -6.5100 -3.2862
16 10 4 -8.0683 -5.7265
16 10 5 4.0926 -8.0435
16 10 6 4.4557 -8.8717
16 10 9 9.8409 -0.7929
16 12 0 7.2083 0.7209
16 12 1 -2.4713 -12.3867
17 1 0 3.3836 7.5221
17 1 1 12.1163 2.7097
17 1 2 -22.4511 13.3331
17 1 3 -9.1308 -6.2409
17 1 4 -13.8581 7.2918
17 1 5 0.1477 -7.2891
17 1 6 11.6491 3.6965
17 1 7 12.1226 0.9412
17 1 8 21.9710 7.9120
17 1 9 -1.1287 9.2380
17 1 10 16.3301 8.5753
17 1 11 -10.6254 11.7274
17 1 12 10.7414 5.3055
17 1 13 -3.6440 10.0488
17 1 14 5.1066 2.0940
17 1 15 -1.0022 3.0970
17 1 16 -5.6940 -7.3512
17 1 17 -3.0248 -4.5100
17 1 18 -10.2903 -20.4528
17 3 0 -3.1163 -2.3955
17 3 1 7.8221 0.3362
17 3 2 21.9426 -3.8408
17 3 3 -4.7290 1.9619
17 3 4 22.0967 -2.9295
17 3 5 4.0009 0.4218
17 3 6 6.8560 -2.6696
17 3 7 6.4059 0.1770
17 3 8 -6.3583 -3.7129
17 3 9 -14.6371 0.6366
17 3 10 -3.6876 -3.1684
17 3 11 -19.6926 -3.0250
17 3 12 7.3703 0.2707
17 3 13 -2.6437 -5.5710
17 3 14 7.0973 6.5673
17 3 15 4.6388 -4.2014
17 3 16 -0.9946 11.8876
17 3 17 3.3490 -6.6155
17 5 0 -11.9880 2.3398
17 5 1 7.7353 2.2032
17 5 2 12.6513 -0.1109
17 5 3 29.0773 -2.1019
17 5 4 20.5771 -0.2230
17 5 5 28.0128 -2.4725
17 5 6 10.9856 -1.7221
17 5 7 14.5564 0.6414
17 5 8 -8.4464 -2.9773
17 5 9 2.5284 3.9895
17 5 10 -23.6149 -1.9063
17 5 11 -4.9631 1.8151
17 5 12 -23.1757 -3.1912
17 5 13 -12.6879 -5.7035
17 5 14 -12.5560 -5.3150
17 5 15 -15.3063 -8.7214
17 5 16 -1.0390 -3.1090
17 7 0 -8.4978 1.2078
17 7 1 -16.2467 -1.0480
17 7 2 -7.0507 0.0836
17 7 3 5.6721 -0.3054
17 7 4 1.7782 1.5951
17 7 5 19.2555 3.9186
17 7 6 3.0336 4.9329
17 7 7 11.3736 2.0700
17 7 8 -4.5639 6.7541
17 7 9 6.2045 -6.0317
17 7 10 -8.9092 5.2712
17 7 11 8.8221 -8.0340
17 7 12 -5.4769 -0.1334
17 7 13 6.1432 -2.5229
17 9 0 41.1915 -2.6095
17 9 1 4.1973 -0.9691
17 9 2 34.1310 0.7977
17 9 3 0.9807 1.2329
17 9 4 4.9286 3.1704
17 9 5 -6.7390 3.9709
17 9 6 -15.0420 0.6921
17 9 7 -6.4752 3.7140
17 9 8 -13.5782 -4.6664
17 9 9 -1.4709 1.7643
17 9 10 -3.9185 -9.6391
17 11 0 1.2060 0.1759
17 11 1 -1.5870 6.5118
17 11 2 5.3142 0.6529
17 11 3 -1.7692 17.8719
17 11 4 -3.0351 -5.9494
17 11 5 -3.3700 23.6931
18 0 0 28.8089 -22.1704
18 0 2 31.5569 -9.3442
18 0 4 13.6991 -0.0004
18 0 6 -8.5836 -6.4009
18 0 8 -18.8287 -11.9435
18 0 10 -14.2823 -10.1633
18 0 12 -4.1902 -9.0566
18 0 14 9.1003 -7.3359
18 0 16 20.0060 -4.3114
18 2 0 -4.7097 0.2728
18 2 1 -0.7422 0.9126
18 2 2 -2.9559 2.4809
18 2 3 -3.8463 4.4801
18 2 4 -2.0608 4.8228
18 2 5 -14.4881 3.8674
18 2 6 7.7271 2.6813
18 2 7 13.5599 0.4888
18 2 8 16.1953 0.8656
18 2 9 33.0129 0.2920
18 2 10 9.0260 1.2142
18 2 11 5.5438 -0.1439
18 2 12 -3.6208 -0.8147
18 2 13 -19.2401 -3.5791
18 2 14 -4.0675 -0.7812
18 2 15 -14.1976 -5.8535
18 2 16 2.2456 6.7649
18 2 17 -5.6363 -9.8039
18 4 0 -12.6716 1.3386
18 4 1 -10.2451 1.8979
18 4 2 -14.3467 0.6659
18 4 3 -17.0609 2.2390
18 4 4 -0.3864 0.5807
18 4 5 -26.5956 3.0308
18 4 6 8.5420 0.8137
18 4 7 -17.6489 0.3428
18 4 8 5.6581 -2.7366
18 4 9 0.1384 -2.3261
18 4 10 -4.7842 -4.6910
18 4 11 6.4452 -2.4547
18 4 12 -7.3532 -0.5752
18 4 13 4.9729 -5.7543
18 4 14 2.2293 3.2444
18 4 15 -1.9731 -9.6386
18 6 0 10.7981 -0.2792
18 6 1 5.6170 0.0455
18 6 2 9.0988 -0.6088
18 6 3 -5.2993 -0.8315
18 6 4 14.3139 -0.6961
18 6 5 -5.8168 -0.6486
18 6 6 26.6605 2.1153
18 6 7 -3.7977 2.0531
18 6 8 28.2515 3.6195
18 6 9 -6.5878 2.0090
18 6 10 12.5994 2.2955
18 6 11 -3.3023 1.4904
18 6 12 -1.8397 -1.1677
18 6 13 5.3242 4.5433
18 6 14 -3.4813 -6.5275
18 8 0 -4.5515 -4.0393
18 8 1 -24.2852 -0.9544
18 8 2 3.1918 0.1934
18 8 3 -26.9280 -3.7519
18 8 4 15.8112 2.5845
18 8 5 -9.3280 -4.8733
18 8 6 21.9682 0.4494
18 8 7 2.0121 0.4775
18 8 8 13.5586 -6.0349
18 8 9 -0.8688 4.7540
18 8 10 1.4592 -12.9718
18 10 0 -12.7352 -5.4644
18 10 1 12.6787 1.4949
18 10 2 2.9519 -7.2807
18 10 3 10.4984 8.4690
18 10 5 -3.5179 13.3972
18 10 6 -5.8057 14.0262
19 1 0 -2.5546 -2.4473
19 1 1 -6.3152 -1.1073
19 1 2 -13.7391 -5.6802
19 1 3 9.9188 -5.0941
19 1 4 -19.7296 1.2404
19 1 5 -8.1487 -7.1772
19 1 6 -14.4274 6.7708
19 1 7 -40.2065 -7.5258
19 1 8 -7.9973 3.3647
19 1 9 -28.6049 -4.9601
19 1 10 -2.9515 4.6789
19 1 11 5.2239 -0.9987
19 1 12 0.2626 11.2236
19 1 13 15.3380 0.1209
19 1 14 -2.7754 8.9128
19 1 15 10.0171 1.8521
19 1 16 -3.6800 2.8562
19 3 0 28.4967 -4.4536
19 3 1 -27.6574 -2.0789
19 3 2 12.5725 -0.9658
19 3 3 5.8826 -0.0876
19 3 4 -5.7999 -0.1639
19 3 5 21.7849 1.0509
19 3 6 -15.5815 -1.1473
19 3 7 11.5087 -2.4578
19 3 8 -13.2726 -3.3535
19 3 9 14.7520 -7.6128
19 3 10 -8.2114 -5.2146
19 3 11 17.0115 -3.8651
19 3 12 -10.8206 -3.8513
19 3 13 -0.6655 5.6642
19 3 14 -12.3812 -1.0732
19 3 15 -10.2292 9.3696
19 5 0 2.6645 2.9210
19 5 1 -2.8318 -0.2830
19 5 2 -31.0849 1.8112
19 5 3 -13.6396 1.1538
19 5 4 -43.9158 -2.6888
19 5 5 -16.3981 -1.5103
19 5 6 -22.1716 -3.7780
19 5 7 -16.4800 -2.8374
19 5 8 22.6627 -0.7942
19 5 9 -9.9978 -1.3072
19 5 10 58.0795 -0.1895
19 5 11 -4.8136 3.5653
19 5 12 56.6348 -1.2907
19 7 0 20.1262 1.6882
19 7 1 19.1776 0.0582
19 7 2 25.3096 1.5358
19 7 3 1.3737 2.1847
19 7 4 -3.0980 0.7442
19 7 5 -20.3817 0.4475
19 7 6 -21.7630 -2.7049
19 7 7 -15.5544 -0.9960
19 7 8 -11.1062 -5.8784
19 7 9 -2.0436 1.1524
19 7 10 2.5229 -5.8069
19 7 11 -0.8966 0.1387
19 9 0 -19.5356 4.3446
19 9 1 -0.5026 3.7638
19 9 2 -30.1502 0.5543
19 9 3 3.6689 -0.5443
19 9 4 -15.4999 -2.5093
19 9 5 8.1032 -9.1397
19 9 6 3.2413 -1.0109
19 11 0 5.2176 4.1566
19 11 1 -6.8935 -3.7623
20 0 0 -4.1863 3.3055
20 0 2 26.1977 5.2507
20 0 4 25.2269 0.3687
20 0 6 19.0036 0.4142
20 0 8 18.8491 -3.3298
20 0 10 3.0645 -12.1705
20 0 12 -14.5620 -11.6489
20 0 14 -13.9113 -3.6966
20 2 0 -1.7621 6.0991
20 2 1 -13.6128 8.2552
20 2 2 -24.7535 -2.7706
20 2 3 -11.4594 9.2256
20 2 4 -41.7169 -7.2394
20 2 5 32.2658 7.6612
20 2 6 -44.5406 0.8162
20 2 7 38.1905 5.3266
20 2 8 -28.8169 9.9156
20 2 9 2.5554 0.7801
20 2 10 -5.4157 6.1125
20 2 11 -6.9304 -2.6947
20 2 12 11.8711 -2.6028
20 2 13 5.5427 -2.9848
20 2 14 13.5683 -6.7269
20 4 0 2.4040 -0.2990
20 4 1 53.9537 -1.5131
20 4 2 -3.2597 3.5901
20 4 3 40.8531 1.9247
20 4 4 -10.4691 6.0934
20 4 5 35.0353 0.3939
20 4 6 -10.2892 3.4654
20 4 7 20.6739 -0.7862
20 4 8 -8.3317 1.3989
20 4 9 -4.4523 1.0425
20 4 10 -1.6132 1.4380
20 4 11 -11.4182 3.1756
20 4 12 8.2776 0.9941
20 4 13 -4.4028 9.3527
20 6 0 -24.2862 0.1850
20 6 1 -30.0799 0.9045
20 6 2 0.2640 1.1593
20 6 3 -8.8372 0.3945
20 6 4 5.4795 0.6364
20 6 5 17.6975 -3.0724
20 6 6 -23.3057 -1.4726
20 6 7 22.1176 -9.4168
20 6 8 -46.4749 0.2890
20 6 9 14.9619 -9.8765
20 6 10 -31.8603 5.3112
20 6 11 8.0985 -5.6655
20 8 0 0.1027 2.6945
20 8 1 -6.2499 0.3239
20 8 2 0.0634 -0.1705
20 8 3 8.7910 3.1160
20 8 4 -0.0851 -2.9971
20 8 5 5.6402 7.0057
20 8 6 -6.0409 -2.8550
20 8 7 -2.3381 4.7200
20 10 1 3.2395 -0.7970
20 10 2 7.1227 9.9013
21 1 0 -20.1610 -2.0655
21 1 1 56.1990 -3.1675
21 1 2 0.1096 -1.5695
21 1 3 32.8983 -1.4191
21 1 4 28.7888 -6.9321
21 1 5 -1.6483 -1.9922
21 1 6 19.4317 -9.7780
21 1 7 1.3839 -3.8179
21 1 8 0.7642 3.3066
21 1 9 3.5775 -5.7504
21 1 10 -0.3954 15.9600
21 1 11 -10.9411 -4.5051
21 1 12 -1.2917 12.6256
21 1 13 -12.4288 2.0818
21 3 0 -26.6588 -1.5182
21 3 1 32.1405 -4.6657
21 3 2 11.2966 -0.3226
21 3 3 12.8376 -4.6021
21 3 4 43.3567 1.4338
21 3 5 -17.9833 0.1088
21 3 6 44.9178 1.6808
21 3 7 -7.3922 6.5509
21 3 8 23.9862 1.7415
21 3 9 8.7533 10.2563
21 3 10 0.5851 1.2717
21 3 11 5.8176 3.7106
21 3 12 -8.0475 -2.6387
21 5 0 -10.3460 -2.0783
21 5 1 8.7377 -3.8300
21 5 2 -9.0565 -1.7755
21 5 3 -0.5850 -6.5870
21 5 4 -1.6348 2.8418
21 5 5 -1.4864 -1.2417
21 5 6 1.7462 5.3426
21 5 7 16.7791 1.7524
21 5 8 -10.4058 2.3855
21 5 9 20.0476 0.1193
21 5 10 -34.5721 -0.0993
21 7 0 -13.3544 -5.1206
21 7 1 10.9367 0.3565
21 7 2 -36.3371 -4.2415
21 7 3 2.1492 1.5032
21 7 4 -8.5528 -2.1586
21 7 5 1.4297 5.5395
21 7 6 23.2863 0.0911
21 7 7 -5.5868 8.2459
21 7 8 15.4803 1.0170
21 9 0 -17.4448 -7.5852
21 9 1 4.9815 -4.3774
21 9 2 1.9041 -4.3704
21 9 3 5.8792 -4.0692
22 0 0 -13.3381 3.8686
22 0 2 -35.1127 7.1551
22 0 4 4.1762 12.8843
22 0 6 50.2663 7.4918
22 0 8 33.8712 -1.1854
22 0 10 4.7781 -0.1994
22 0 12 4.6224 1.1246
22 2 0 25.1505 1.1391
22 2 1 -47.5191 -0.1195
22 2 2 12.7859 -0.5883
22 2 3 -29.6314 -3.6510
22 2 4 5.6727 0.8334
22 2 5 -30.1312 -1.4037
22 2 6 15.1969 -3.7829
22 2 7 -29.6935 7.2095
22 2 8 14.4992 -10.7545
22 2 9 1.6831 18.4457
22 2 10 6.4909 -4.5077
22 2 11 18.2982 21.6094
22 4 0 -0.0961 -0.8611
22 4 1 -22.9292 -3.6767
22 4 2 31.4183 -1.3619
22 4 3 0.1176 -8.1158
22 4 4 48.8784 -4.0013
22 4 5 -17.5018 -3.7585
22 4 6 31.9407 -4.8356
22 4 7 -50.1890 3.5497
22 4 8 10.1104 -4.9643
22 4 10 3.6445 -3.8125
22 6 0 31.7988 -0.9007
22 6 1 15.1745 -0.3576
22 6 2 10.7595 -7.0302
22 6 3 21.6227 -6.0697
22 6 4 -6.5650 -8.0271
22 6 5 3.4898 -6.3941
22 6 6 11.0313 -0.9496
22 6 7 -0.3831 3.1953
22 6 8 36.1266 4.4384
22 8 0 6.9074 -3.3408
22 8 1 15.5124 -0.0213
22 8 2 -3.5120 2.0570
22 8 3 -2.7386 -0.9167
23 1 0 59.2896 -3.9133
23 1 1 -5.4084 -2.6240
23 1 2 43.5900 -8.0386
23 1 3 13.5675 0.7100
23 1 4 -33.9104 -8.4409
23 1 5 39.2570 -0.7116
23 1 6 -57.9340 -4.1668
23 1 7 18.9993 -4.5091
23 1 8 -22.0739 -13.3032
23 1 9 -13.1324 -2.7532
23 1 10 0.9343 -27.7681
23 3 0 0.0050 2.6967
23 3 1 -84.3266 3.3900
23 3 2 -13.9049 3.5359
23 3 3 -111.2576 -0.9380
23 3 4 -17.3420 0.8963
23 3 5 -56.0466 -6.1897
23 3 6 2.5273 -0.3886
23 3 7 -9.4543 -9.6041
23 3 8 18.1695 -0.8746
23 5 0 27.9494 1.3177
23 5 1 -55.2006 10.9828
23 5 2 17.1495 2.2887
23 5 3 -31.4193 17.1103
23 5 4 -0.2541 0.4575
23 5 5 5.2390 5.1105
23 5 6 -14.6966 -1.3597
23 5 7 1.7873 -6.7926
23 7 0 2.8680 8.4660
23 7 1 -5.0354 1.3456
23 7 2 57.7658 7.1654
24 0 0 -41.5791 -2.4782
24 0 2 -6.5945 6.8496
24 0 4 17.0896 7.1128
24 0 6 -11.4525 7.8233
24 0 8 -11.1710 12.8374
24 2 0 -7.3328 -1.8013
24 2 1 57.6012 0.2689
24 2 2 17.9989 5.0449
24 2 3 21.9841 -0.2311
24 2 4 21.8117 3.3935
24 2 5 -11.7711 -2.0962
24 2 6 -17.7854 2.2988
24 2 7 -4.9422 -6.6850
24 4 0 4.3083 -1.9189
24 4 1 80.1069 3.8353
24 4 2 -30.8912 -4.2249
24 4 3 61.6143 15.5370
24 4 4 -65.1405 -1.3856
24 6 0 -62.1709 0.7072
24 6 1 -34.6262 -3.6384
25 1 0 -50.9707 -6.4537
25 1 1 22.5684 5.7957
25 1 2 -70.2661 -2.4910
25 1 3 54.5587 7.3655
25 1 4 -3.3187 7.5022
25 3 0 -68.3704 5.1774
25 3 1 54.9563 -2.1331
25 3 2 -70.7412 -2.0852
25 3 3 114.0616 1.5434
25 5 0 38.1680 1.0900
25 5 1 85.4783 -6.8069
26 0 0 -24.3281 21.6623
26 0 2 -61.9620 -2.3734
26 2 0 90.0430 2.4939
26 2 1 -46.7233 -2.9509
26 2 2 81.1753 -2.0707
26 2 3 -57.2746 -0.7384
26 4 0 -38.0771 -2.2452
26 4 1 -111.2472 -5.9154
27 1 0 38.0739 5.3836
27 1 1 -83.7693 0.7961
27 1 2 97.1679 8.8008
27 3 0 54.2952 -2.1479
28 0 0 21.7291 -36.1766
28 2 0 -79.6293 -5.3040
0 0 0 0.0 0.0
;
_shelx_fab_checksum                37355
_olex2_submission_special_instructions  'No special instructions were received'
_vrf_PLAT934_dy-u6
;
PROBLEM: Number of (Iobs-Icalc)/Sigma(W) > 10 Outliers .. 3 Check
RESPONSE: ...
;
_vrf_PLAT971_dy-u6
;
PROBLEM: Check Calcd Resid. Dens. 0.75Ang From O37 3.47 eA-3
RESPONSE: high residual q-peaks common near heavy atoms
;
# start Validation Reply Form
_vrf_PLAT975_dy-u6
;
PROBLEM: Check Calcd Resid. Dens. 0.75Ang From O37 . 3.47 eA-3
RESPONSE: high residual q-peaks common near heavy atoms
;
_vrf_PLAT976_dy-u6
;
PROBLEM: Check Calcd Resid. Dens. 0.49Ang From O39 . -1.96 eA-3
RESPONSE: high residual q-peaks common near heavy atoms
;
