data_nh46ceso45
_audit_creation_date               2021-09-08
_audit_creation_method
;
Olex2 1.3
(compiled 2020.11.12 svn.r5f609507 for OlexSys, GUI svn.r6272)
;
_shelx_SHELXL_version_number       '2018/3'
_audit_contact_author_address      ?
_audit_contact_author_email        ?
_audit_contact_author_name         ''
_audit_contact_author_phone        ?
_publ_contact_author_id_orcid      ?
_publ_section_references
;
Dolomanov, O.V., Bourhis, L.J., Gildea, R.J, Howard, J.A.K. & Puschmann, H.
 (2009), J. Appl. Cryst. 42, 339-341.

Sheldrick, G.M. (2015). Acta Cryst. C71, 3-8.
;
_chemical_name_common              ?
_chemical_name_systematic          ?
_chemical_formula_moiety           '2(Ce O20 S5), 12(N), 9(O)'
_chemical_formula_sum              'Ce2 N12 O49 S10'
_chemical_formula_weight           1552.96
_chemical_melting_point            ?
loop_
  _atom_type_symbol
  _atom_type_description
  _atom_type_scat_dispersion_real
  _atom_type_scat_dispersion_imag
  _atom_type_scat_source
 'Ce' 'Ce' -1.8482 9.6596
 'International Tables Vol C Tables 4.2.6.8 and 6.1.1.4'
 'N' 'N' 0.0311 0.0180 'International Tables Vol C Tables 4.2.6.8 and 6.1.1.4'
 'O' 'O' 0.0492 0.0322 'International Tables Vol C Tables 4.2.6.8 and 6.1.1.4'
 'S' 'S' 0.3331 0.5567 'International Tables Vol C Tables 4.2.6.8 and 6.1.1.4'

_shelx_space_group_comment
;
The symmetry employed for this shelxl refinement is uniquely defined
by the following loop, which should always be used as a source of
symmetry information in preference to the above space-group names.
They are only intended as comments.
;
_space_group_crystal_system        'monoclinic'
_space_group_IT_number             11
_space_group_name_H-M_alt          'P 1 21/m 1'
_space_group_name_Hall             '-P 2yb'
loop_
  _space_group_symop_operation_xyz
 'x, y, z'
 '-x, y+1/2, -z'
 '-x, -y, -z'
 'x, -y-1/2, z'

# end Validation Reply Form
_cell_length_a                     10.4395(2)
_cell_length_b                     20.9450(3)
_cell_length_c                     11.6110(2)
_cell_angle_alpha                  90
_cell_angle_beta                   100.5360(10)
_cell_angle_gamma                  90
_cell_volume                       2496.00(7)
_cell_formula_units_Z              2
_cell_measurement_reflns_used      8122
_cell_measurement_temperature      173.00(10)
_cell_measurement_theta_max        75.7050
_cell_measurement_theta_min        4.2130
_shelx_estimated_absorpt_T_max     0.409
_shelx_estimated_absorpt_T_min     0.208
_exptl_absorpt_coefficient_mu      19.076
_exptl_absorpt_correction_T_max    1.00000
_exptl_absorpt_correction_T_min    0.57828
_exptl_absorpt_correction_type     multi-scan
_exptl_absorpt_process_details
;
CrysAlisPro 1.171.40.68a (Rigaku Oxford Diffraction, 2019)
Empirical absorption correction using spherical harmonics,
 implemented in SCALE3 ABSPACK scaling algorithm.
;
_exptl_absorpt_special_details     ?
_exptl_crystal_colour              'clear orange'
_exptl_crystal_colour_lustre       clear
_exptl_crystal_colour_modifier     .
_exptl_crystal_colour_primary      orange
_exptl_crystal_density_diffrn      2.066
_exptl_crystal_density_meas        ?
_exptl_crystal_density_method      ?
_exptl_crystal_description         block
_exptl_crystal_F_000               1504
_exptl_crystal_size_max            0.12
_exptl_crystal_size_mid            0.078
_exptl_crystal_size_min            0.057
_exptl_transmission_factor_max     ?
_exptl_transmission_factor_min     ?
_diffrn_reflns_av_R_equivalents    0.0418
_diffrn_reflns_av_unetI/netI       0.0395
_diffrn_reflns_Laue_measured_fraction_full  0.997
_diffrn_reflns_Laue_measured_fraction_max  0.952
_diffrn_reflns_limit_h_max         13
_diffrn_reflns_limit_h_min         -11
_diffrn_reflns_limit_k_max         26
_diffrn_reflns_limit_k_min         -22
_diffrn_reflns_limit_l_max         11
_diffrn_reflns_limit_l_min         -14
_diffrn_reflns_number              18462
_diffrn_reflns_point_group_measured_fraction_full  0.997
_diffrn_reflns_point_group_measured_fraction_max  0.952
_diffrn_reflns_theta_full          67.684
_diffrn_reflns_theta_max           75.915
_diffrn_reflns_theta_min           3.872
_diffrn_ambient_temperature        173.00(10)
_diffrn_detector_area_resol_mean   10.0000
_diffrn_detector_type              HyPix
_diffrn_measured_fraction_theta_full  0.997
_diffrn_measured_fraction_theta_max  0.952
_diffrn_measurement_details
;
List of Runs (angles in degrees, time in seconds):

  # Type    Start    End  Width  t~exp~   \w     \q     \k     \f   Frames
--------------------------------------------------------------------------
  1  \w     87.00 112.50   0.75    0.10    --   48.24  77.00   0.00   34
  2  \w    107.00 152.00   0.75    0.40    --  104.24 104.00  55.00   60
  3  \w     92.00 117.50   0.75    0.10    --   48.24  77.00 -90.00   34
  4  \w     89.00 114.50   0.75    0.10    --   48.24  77.00-150.00   34
  5  \w     24.00  53.25   0.75    0.10    --   48.24-104.00 -46.00   39
  6  \w     32.00  63.50   0.75    0.40    --  104.24 -99.00  60.00   42
  7  \w     69.00 100.50   0.75    0.40    --  104.24 -99.00  60.00   42
  8  \w     44.00 103.25   0.75    0.40    --  104.24 -99.00   0.00   79
  9  \w     66.00 100.50   0.75    0.40    --  104.24-104.00 -46.00   46
 10  \w     36.00  63.00   0.75    0.40    --  104.24 -57.00 -30.00   36
 11  \w     54.00 105.00   0.75    0.40    --  104.24 -77.00-180.00   68
 12  \w     34.00  65.50   0.75    0.40    --  104.24 -57.00-150.00   42
 13  \w     34.00  64.00   0.75    0.40    --  104.24 -57.00 -90.00   40
 14  \w     40.00  65.50   0.75    0.40    --  104.24 -57.00  30.00   34
 15  \w     32.00  63.50   0.75    0.40    --  104.24 -57.00  90.00   42
 16  \w     33.00  61.50   0.75    0.40    --  104.24 -57.00 120.00   38
 17  \w     33.00  65.25   0.75    0.40    --  104.24 -57.00 150.00   43
 18  \w     32.00  63.50   0.75    0.40    --  104.24 -57.00-180.00   42
 19  \w    -46.00 -19.00   0.75    0.40    --  -86.25  57.00  30.00   36
 20  \w    -41.00 -15.50   0.75    0.40    --  -86.25  37.00   0.00   34
 21  \w    -42.00 -16.50   0.75    0.40    --  -86.25  37.00-180.00   34
 22  \w    -42.00 -15.75   0.75    0.40    --  -86.25  37.00-120.00   35
 23  \w    -40.00 -13.75   0.75    0.40    --  -86.25  37.00 -90.00   35
 24  \w    -40.00 -13.00   0.75    0.40    --  -86.25  37.00 150.00   36
 25  \w    -81.00   2.25   0.75    0.10    --  -48.24 104.00  55.00  111
 26  \w    -71.00 -46.25   0.75    0.40    --  -86.25 104.00  55.00   33
 27  \w   -147.00 -99.00   0.75    0.40    --  -86.25-104.00 -46.00   64
 28  \w   -118.00 -85.00   0.75    0.10    --  -48.24 -77.00  60.00   44
 29  \w   -120.00 -88.50   0.75    0.10    --  -48.24 -77.00 120.00   42
 30  \w   -121.00 -94.75   0.75    0.10    --  -48.24 -77.00 150.00   35
;
_diffrn_measurement_device         'four-circle diffractometer'
_diffrn_measurement_device_type    'XtaLAB Synergy, Dualflex, HyPix'
_diffrn_measurement_method         '\w scans'
_diffrn_radiation_type             CuK\a
_diffrn_radiation_wavelength       1.54184
_diffrn_source                     ?
_reflns_Friedel_coverage           0.000
_reflns_Friedel_fraction_full      .
_reflns_Friedel_fraction_max       .
_reflns_number_gt                  4049
_reflns_number_total               5103
_reflns_special_details
;
 Reflections were merged by SHELXL according to the crystal
 class for the calculation of statistics and refinement.
 
 _reflns_Friedel_fraction is defined as the number of unique
 Friedel pairs measured divided by the number that would be
 possible theoretically, ignoring centric projections and
 systematic absences.
;
_reflns_threshold_expression       'I > 2\s(I)'
_computing_cell_refinement         'CrysAlisPro 1.171.40.68a (Rigaku OD, 2019)'
_computing_data_collection         'CrysAlisPro 1.171.40.68a (Rigaku OD, 2019)'
_computing_data_reduction          'CrysAlisPro 1.171.40.68a (Rigaku OD, 2019)'
_computing_molecular_graphics      'Olex2 1.3 (Dolomanov et al., 2009)'
_computing_publication_material    'Olex2 1.3 (Dolomanov et al., 2009)'
_computing_structure_refinement    'SHELXL 2018/3 (Sheldrick, 2015)'
_computing_structure_solution      'SHELXT 2018/2 (Sheldrick, 2018)'
_refine_diff_density_max           1.498
_refine_diff_density_min           -1.379
_refine_diff_density_rms           0.167
_refine_ls_extinction_coef         .
_refine_ls_extinction_method       none
_refine_ls_goodness_of_fit_ref     1.058
_refine_ls_hydrogen_treatment      undef
_refine_ls_matrix_type             full
_refine_ls_number_parameters       335
_refine_ls_number_reflns           5103
_refine_ls_number_restraints       0
_refine_ls_R_factor_all            0.0487
_refine_ls_R_factor_gt             0.0390
_refine_ls_restrained_S_all        1.058
_refine_ls_shift/su_max            0.002
_refine_ls_shift/su_mean           0.000
_refine_ls_structure_factor_coef   Fsqd
_refine_ls_weighting_details      
 'w=1/[\s^2^(Fo^2^)+(0.0631P)^2^+7.5349P] where P=(Fo^2^+2Fc^2^)/3'
_refine_ls_weighting_scheme        calc
_refine_ls_wR_factor_gt            0.1117
_refine_ls_wR_factor_ref           0.1205
_refine_special_details            ?
_olex2_refinement_description
;
;
_atom_sites_solution_hydrogens     .
_atom_sites_solution_primary       dual
_atom_sites_solution_secondary     ?
loop_
  _atom_site_label
  _atom_site_type_symbol
  _atom_site_fract_x
  _atom_site_fract_y
  _atom_site_fract_z
  _atom_site_U_iso_or_equiv
  _atom_site_adp_type
  _atom_site_occupancy
  _atom_site_site_symmetry_order
  _atom_site_calc_flag
  _atom_site_refinement_flags_posn
  _atom_site_refinement_flags_adp
  _atom_site_refinement_flags_occupancy
  _atom_site_disorder_assembly
  _atom_site_disorder_group
 Ce1 Ce 0.75004(2) 0.43459(2) 0.74991(2) 0.00558(11) Uani 1 1 d . . . . .
 S1 S 0.50319(10) 0.41900(5) 0.85731(9) 0.0089(2) Uani 1 1 d . . . . .
 S2 S 0.86619(10) 0.36598(5) 0.98177(8) 0.0081(2) Uani 1 1 d . . . . .
 S3 S 0.63428(10) 0.36746(5) 0.51425(8) 0.0080(2) Uani 1 1 d . . . . .
 S4 S 0.99698(11) 0.43004(5) 0.64347(9) 0.0093(2) Uani 1 1 d . . . . .
 S5 S 0.73982(9) 0.58036(6) 0.75215(8) 0.0096(2) Uani 1 1 d . . . . .
 O1 O 0.6119(3) 0.43457(14) 0.5469(3) 0.0108(7) Uani 1 1 d . . . . .
 O2 O 0.9667(3) 0.39711(15) 0.7505(2) 0.0114(6) Uani 1 1 d . . . . .
 O3 O 0.6388(3) 0.53439(15) 0.6927(3) 0.0122(6) Uani 1 1 d . . . . .
 O4 O 1.0211(3) 0.38411(17) 0.5572(3) 0.0188(7) Uani 1 1 d . . . . .
 O8AA O 0.7859(3) 0.62025(16) 0.6656(3) 0.0149(7) Uani 1 1 d . . . . .
 O7AA O 0.9934(3) 0.33491(17) 1.0017(3) 0.0134(6) Uani 1 1 d . . . . .
 O7 O 0.6966(3) 0.36443(16) 0.4111(3) 0.0157(7) Uani 1 1 d . . . . .
 O0AA O 1.1084(3) 0.47265(16) 0.6783(3) 0.0160(7) Uani 1 1 d . . . . .
 O9 O 0.8034(3) 0.35950(16) 1.0844(3) 0.0142(7) Uani 1 1 d . . . . .
 O10 O 0.8809(3) 0.43463(14) 0.9506(3) 0.0100(7) Uani 1 1 d . . . . .
 O11 O 0.7790(3) 0.33988(15) 0.8751(3) 0.0108(6) Uani 1 1 d . . . . .
 O12 O 0.4859(3) 0.36933(16) 0.9407(3) 0.0166(7) Uani 1 1 d . . . . .
 O13 O 0.5151(3) 0.33059(17) 0.4972(3) 0.0167(7) Uani 1 1 d . . . . .
 O14 O 0.6193(3) 0.45961(16) 0.9018(3) 0.0124(6) Uani 1 1 d . . . . .
 O15 O 0.5358(3) 0.38984(15) 0.7474(2) 0.0107(6) Uani 1 1 d . . . . .
 O16 O 0.3860(3) 0.45802(17) 0.8258(3) 0.0168(7) Uani 1 1 d . . . . .
 O17 O 0.6896(3) 0.61881(16) 0.8387(3) 0.0160(7) Uani 1 1 d . . . . .
 O18 O 0.7282(3) 0.34320(15) 0.6199(2) 0.0102(6) Uani 1 1 d . . . . .
 O19 O 0.8751(3) 0.46751(15) 0.6027(2) 0.0106(6) Uani 1 1 d . . . . .
 O20 O 0.8454(3) 0.53698(15) 0.8116(3) 0.0115(6) Uani 1 1 d . . . . .
 N1 N 0.1712(4) 0.4449(2) 0.9416(4) 0.0156(8) Uani 1 1 d . . . . .
 N2 N 0.6763(4) 0.5545(2) 0.4419(3) 0.0132(8) Uani 1 1 d . . . . .
 N3 N 1.0608(4) 0.6041(2) 0.6849(3) 0.0172(8) Uani 1 1 d . . . . .
 N4 N 0.4169(4) 0.5893(2) 0.8198(4) 0.0186(8) Uani 1 1 d . . . . .
 O5 O 1.0981(5) 0.250000 1.1780(4) 0.0231(11) Uani 1 2 d S T P . .
 O6 O 1.0797(5) 0.250000 0.8455(4) 0.0239(11) Uani 1 2 d S T P . .
 O1AA O 0.6944(6) 0.250000 0.2866(4) 0.0324(13) Uani 1 2 d S T P . .
 N7 N 0.5581(6) 0.250000 0.7186(5) 0.0228(13) Uani 1 2 d S T P . .
 O2AA O 0.3074(6) 0.250000 0.3870(5) 0.0345(13) Uani 1 2 d S T P . .
 N3AA N 0.9641(6) 0.250000 1.3652(5) 0.0234(13) Uani 1 2 d S T P . .
 O4AA O 0.9351(6) 0.250000 0.6117(5) 0.0368(13) Uani 1 2 d S T P . .
 O5AA O 0.6124(6) 0.250000 1.0323(5) 0.0396(14) Uani 1 2 d S T P . .
 O6AA O 0.6241(7) 0.750000 0.8879(6) 0.0536(18) Uiso 1 2 d S . P . .
 O8 O 0.3304(7) 0.2771(4) 0.8203(7) 0.105(3) Uani 1 1 d . . . . .
 N0AA N 0.2189(9) 0.2974(4) 0.5856(8) 0.087(2) Uiso 1 1 d . . . . .

loop_
  _atom_site_aniso_label
  _atom_site_aniso_U_11
  _atom_site_aniso_U_22
  _atom_site_aniso_U_33
  _atom_site_aniso_U_23
  _atom_site_aniso_U_13
  _atom_site_aniso_U_12
 Ce1 0.00636(16) 0.00625(16) 0.00450(16) -0.00016(7) 0.00192(10) 0.00001(7)
 S1 0.0075(5) 0.0132(5) 0.0069(5) 0.0006(4) 0.0035(4) 0.0007(4)
 S2 0.0088(5) 0.0103(5) 0.0056(4) 0.0016(4) 0.0021(4) 0.0010(4)
 S3 0.0096(5) 0.0093(5) 0.0053(4) -0.0013(4) 0.0016(4) -0.0013(4)
 S4 0.0079(5) 0.0134(5) 0.0074(5) -0.0013(4) 0.0032(4) -0.0003(4)
 S5 0.0136(5) 0.0074(5) 0.0078(5) -0.0006(3) 0.0024(4) 0.0006(3)
 O1 0.0098(16) 0.0114(16) 0.0109(16) 0.0000(11) 0.0015(13) 0.0018(11)
 O2 0.0116(15) 0.0158(16) 0.0075(14) 0.0003(12) 0.0040(11) 0.0022(12)
 O3 0.0140(15) 0.0106(16) 0.0112(14) -0.0017(12) 0.0000(12) -0.0018(12)
 O4 0.0240(18) 0.0214(18) 0.0119(15) -0.0051(13) 0.0060(13) 0.0052(14)
 O8AA 0.0190(16) 0.0118(16) 0.0143(15) 0.0043(13) 0.0037(12) 0.0008(13)
 O7AA 0.0103(15) 0.0158(16) 0.0138(15) 0.0027(12) 0.0012(12) 0.0044(12)
 O7 0.0218(17) 0.0198(18) 0.0065(14) -0.0021(12) 0.0052(13) 0.0000(14)
 O0AA 0.0110(15) 0.0188(17) 0.0192(16) -0.0019(13) 0.0054(13) -0.0047(13)
 O9 0.0172(16) 0.0180(17) 0.0086(14) 0.0038(12) 0.0058(12) -0.0016(13)
 O10 0.0116(16) 0.0103(16) 0.0086(15) -0.0012(11) 0.0036(13) -0.0013(11)
 O11 0.0137(15) 0.0114(16) 0.0066(14) -0.0023(11) -0.0004(12) -0.0003(12)
 O12 0.0222(17) 0.0195(17) 0.0098(15) 0.0059(13) 0.0073(13) -0.0035(14)
 O13 0.0149(16) 0.0192(17) 0.0152(16) -0.0015(13) 0.0002(13) -0.0064(13)
 O14 0.0119(15) 0.0146(16) 0.0111(15) -0.0045(12) 0.0028(12) -0.0010(13)
 O15 0.0107(14) 0.0144(16) 0.0082(14) -0.0023(12) 0.0047(11) -0.0006(12)
 O16 0.0089(15) 0.0231(18) 0.0193(16) 0.0004(14) 0.0050(13) 0.0038(13)
 O17 0.0204(17) 0.0138(16) 0.0149(15) -0.0065(13) 0.0062(13) 0.0027(13)
 O18 0.0134(15) 0.0109(16) 0.0063(14) -0.0001(12) 0.0014(11) 0.0007(12)
 O19 0.0110(15) 0.0135(16) 0.0075(14) 0.0031(12) 0.0023(11) 0.0013(12)
 O20 0.0147(15) 0.0094(15) 0.0102(14) 0.0010(12) 0.0016(12) 0.0020(12)
 N1 0.016(2) 0.021(2) 0.0108(19) -0.0021(16) 0.0046(16) -0.0027(16)
 N2 0.0120(19) 0.018(2) 0.0095(18) 0.0011(15) 0.0017(15) 0.0004(16)
 N3 0.020(2) 0.021(2) 0.0104(17) -0.0002(15) 0.0007(15) -0.0016(17)
 N4 0.020(2) 0.019(2) 0.0166(19) -0.0005(16) 0.0031(16) 0.0019(17)
 O5 0.030(3) 0.021(3) 0.016(2) 0.000 -0.003(2) 0.000
 O6 0.022(3) 0.027(3) 0.024(3) 0.000 0.009(2) 0.000
 O1AA 0.051(4) 0.028(3) 0.022(3) 0.000 0.014(3) 0.000
 N7 0.029(3) 0.021(3) 0.022(3) 0.000 0.012(3) 0.000
 O2AA 0.032(3) 0.027(3) 0.042(3) 0.000 0.002(3) 0.000
 N3AA 0.038(4) 0.023(3) 0.012(3) 0.000 0.012(3) 0.000
 O4AA 0.035(3) 0.032(3) 0.043(3) 0.000 0.007(3) 0.000
 O5AA 0.041(4) 0.033(3) 0.042(3) 0.000 0.001(3) 0.000
 O8 0.089(5) 0.097(6) 0.128(6) 0.008(4) 0.018(5) -0.002(4)

_geom_special_details
;
 All esds (except the esd in the dihedral angle between two l.s. planes)
 are estimated using the full covariance matrix.  The cell esds are taken
 into account individually in the estimation of esds in distances, angles
 and torsion angles; correlations between esds in cell parameters are only
 used when they are defined by crystal symmetry.  An approximate (isotropic)
 treatment of cell esds is used for estimating esds involving l.s. planes.
;
loop_
  _geom_bond_atom_site_label_1
  _geom_bond_atom_site_label_2
  _geom_bond_distance
  _geom_bond_site_symmetry_2
  _geom_bond_publ_flag
 Ce1 S4 3.0574(11) . ?
 Ce1 S5 3.0554(12) . ?
 Ce1 O1 2.528(3) . ?
 Ce1 O2 2.393(3) . ?
 Ce1 O3 2.424(3) . ?
 Ce1 O10 2.477(3) . ?
 Ce1 O11 2.445(3) . ?
 Ce1 O14 2.475(3) . ?
 Ce1 O15 2.420(3) . ?
 Ce1 O18 2.423(3) . ?
 Ce1 O19 2.433(3) . ?
 Ce1 O20 2.417(3) . ?
 S1 O12 1.455(3) . ?
 S1 O14 1.493(3) . ?
 S1 O15 1.509(3) . ?
 S1 O16 1.461(3) . ?
 S2 O7AA 1.459(3) . ?
 S2 O9 1.467(3) . ?
 S2 O10 1.497(3) . ?
 S2 O11 1.500(3) . ?
 S3 O1 1.486(3) . ?
 S3 O7 1.465(3) . ?
 S3 O13 1.447(3) . ?
 S3 O18 1.512(3) . ?
 S4 O2 1.504(3) . ?
 S4 O4 1.443(3) . ?
 S4 O0AA 1.463(3) . ?
 S4 O19 1.496(3) . ?
 S5 O3 1.499(3) . ?
 S5 O8AA 1.455(3) . ?
 S5 O17 1.458(3) . ?
 S5 O20 1.496(3) . ?
 O8 O8 1.134(15) 4_565 ?

loop_
  _geom_angle_atom_site_label_1
  _geom_angle_atom_site_label_2
  _geom_angle_atom_site_label_3
  _geom_angle
  _geom_angle_site_symmetry_1
  _geom_angle_site_symmetry_3
  _geom_angle_publ_flag
 S5 Ce1 S4 93.89(3) . . ?
 O1 Ce1 S4 90.15(8) . . ?
 O1 Ce1 S5 89.61(7) . . ?
 O2 Ce1 S4 28.90(7) . . ?
 O2 Ce1 S5 111.23(8) . . ?
 O2 Ce1 O1 112.36(10) . . ?
 O2 Ce1 O3 133.53(11) . . ?
 O2 Ce1 O10 68.83(10) . . ?
 O2 Ce1 O11 73.64(10) . . ?
 O2 Ce1 O14 135.36(10) . . ?
 O2 Ce1 O15 138.06(12) . . ?
 O2 Ce1 O18 73.96(10) . . ?
 O2 Ce1 O19 57.76(10) . . ?
 O2 Ce1 O20 87.27(11) . . ?
 O3 Ce1 S4 108.25(8) . . ?
 O3 Ce1 S5 28.94(7) . . ?
 O3 Ce1 O1 65.28(10) . . ?
 O3 Ce1 O10 114.30(10) . . ?
 O3 Ce1 O11 149.69(10) . . ?
 O3 Ce1 O14 73.35(11) . . ?
 O3 Ce1 O19 81.65(10) . . ?
 O10 Ce1 S4 91.11(8) . . ?
 O10 Ce1 S5 90.33(7) . . ?
 O10 Ce1 O1 178.74(8) . . ?
 O11 Ce1 S4 101.15(7) . . ?
 O11 Ce1 S5 143.75(7) . . ?
 O11 Ce1 O1 122.78(10) . . ?
 O11 Ce1 O10 56.91(10) . . ?
 O11 Ce1 O14 76.86(10) . . ?
 O14 Ce1 S4 155.52(7) . . ?
 O14 Ce1 S5 75.98(8) . . ?
 O14 Ce1 O1 111.66(10) . . ?
 O14 Ce1 O10 67.11(10) . . ?
 O15 Ce1 S4 145.97(7) . . ?
 O15 Ce1 S5 110.70(8) . . ?
 O15 Ce1 O1 67.69(10) . . ?
 O15 Ce1 O3 86.30(11) . . ?
 O15 Ce1 O10 111.17(10) . . ?
 O15 Ce1 O11 72.92(10) . . ?
 O15 Ce1 O14 57.44(10) . . ?
 O15 Ce1 O18 72.86(10) . . ?
 O15 Ce1 O19 135.63(10) . . ?
 O18 Ce1 S4 73.35(7) . . ?
 O18 Ce1 S5 142.69(7) . . ?
 O18 Ce1 O1 56.39(10) . . ?
 O18 Ce1 O3 121.67(10) . . ?
 O18 Ce1 O10 124.02(10) . . ?
 O18 Ce1 O11 73.54(11) . . ?
 O18 Ce1 O14 127.59(10) . . ?
 O18 Ce1 O19 77.73(10) . . ?
 O19 Ce1 S4 28.87(7) . . ?
 O19 Ce1 S5 75.33(8) . . ?
 O19 Ce1 O1 68.47(10) . . ?
 O19 Ce1 O10 112.73(10) . . ?
 O19 Ce1 O11 128.59(10) . . ?
 O19 Ce1 O14 151.31(12) . . ?
 O20 Ce1 S4 79.37(8) . . ?
 O20 Ce1 S5 28.84(7) . . ?
 O20 Ce1 O1 114.23(10) . . ?
 O20 Ce1 O3 57.78(12) . . ?
 O20 Ce1 O10 66.06(10) . . ?
 O20 Ce1 O11 122.97(10) . . ?
 O20 Ce1 O14 81.48(10) . . ?
 O20 Ce1 O15 132.59(10) . . ?
 O20 Ce1 O18 150.74(10) . . ?
 O20 Ce1 O19 73.26(10) . . ?
 O12 S1 Ce1 124.07(14) . . ?
 O12 S1 O14 111.65(19) . . ?
 O12 S1 O15 110.37(19) . . ?
 O12 S1 O16 111.5(2) . . ?
 O14 S1 Ce1 52.63(12) . . ?
 O14 S1 O15 103.20(17) . . ?
 O15 S1 Ce1 50.60(12) . . ?
 O16 S1 Ce1 124.32(14) . . ?
 O16 S1 O14 110.9(2) . . ?
 O16 S1 O15 108.84(18) . . ?
 O7AA S2 Ce1 123.04(13) . . ?
 O7AA S2 O9 111.03(19) . . ?
 O7AA S2 O10 109.61(19) . . ?
 O7AA S2 O11 111.46(19) . . ?
 O9 S2 Ce1 125.93(14) . . ?
 O9 S2 O10 111.46(19) . . ?
 O9 S2 O11 110.06(18) . . ?
 O10 S2 Ce1 52.10(13) . . ?
 O10 S2 O11 102.95(18) . . ?
 O11 S2 Ce1 50.88(12) . . ?
 O1 S3 Ce1 53.34(13) . . ?
 O1 S3 O18 102.71(18) . . ?
 O7 S3 Ce1 125.35(14) . . ?
 O7 S3 O1 111.34(19) . . ?
 O7 S3 O18 109.25(18) . . ?
 O13 S3 Ce1 123.13(14) . . ?
 O13 S3 O1 111.6(2) . . ?
 O13 S3 O7 111.35(19) . . ?
 O13 S3 O18 110.22(19) . . ?
 O18 S3 Ce1 49.41(12) . . ?
 O2 S4 Ce1 50.24(12) . . ?
 O4 S4 Ce1 124.60(15) . . ?
 O4 S4 O2 110.92(19) . . ?
 O4 S4 O0AA 111.6(2) . . ?
 O4 S4 O19 112.07(19) . . ?
 O0AA S4 Ce1 123.74(14) . . ?
 O0AA S4 O2 109.12(18) . . ?
 O0AA S4 O19 110.75(19) . . ?
 O19 S4 Ce1 51.73(11) . . ?
 O19 S4 O2 101.95(17) . . ?
 O3 S5 Ce1 51.47(13) . . ?
 O8AA S5 Ce1 123.48(14) . . ?
 O8AA S5 O3 110.14(18) . . ?
 O8AA S5 O17 111.4(2) . . ?
 O8AA S5 O20 111.05(19) . . ?
 O17 S5 Ce1 125.11(15) . . ?
 O17 S5 O3 111.14(19) . . ?
 O17 S5 O20 110.14(18) . . ?
 O20 S5 Ce1 51.19(13) . . ?
 O20 S5 O3 102.7(2) . . ?
 S3 O1 Ce1 98.54(16) . . ?
 S4 O2 Ce1 100.87(16) . . ?
 S5 O3 Ce1 99.59(16) . . ?
 S2 O10 Ce1 99.41(16) . . ?
 S2 O11 Ce1 100.69(16) . . ?
 S1 O14 Ce1 98.73(15) . . ?
 S1 O15 Ce1 100.60(15) . . ?
 S3 O18 Ce1 102.31(16) . . ?
 S4 O19 Ce1 99.40(15) . . ?
 S5 O20 Ce1 99.97(16) . . ?

loop_
  _geom_torsion_atom_site_label_1
  _geom_torsion_atom_site_label_2
  _geom_torsion_atom_site_label_3
  _geom_torsion_atom_site_label_4
  _geom_torsion
  _geom_torsion_site_symmetry_1
  _geom_torsion_site_symmetry_2
  _geom_torsion_site_symmetry_3
  _geom_torsion_site_symmetry_4
  _geom_torsion_publ_flag
 O1 S3 O18 Ce1 2.23(19) . . . . ?
 O2 S4 O19 Ce1 -1.24(18) . . . . ?
 O3 S5 O20 Ce1 1.00(15) . . . . ?
 O4 S4 O2 Ce1 -118.21(18) . . . . ?
 O4 S4 O19 Ce1 117.43(18) . . . . ?
 O8AA S5 O3 Ce1 117.32(17) . . . . ?
 O8AA S5 O20 Ce1 -116.68(17) . . . . ?
 O7AA S2 O10 Ce1 117.14(17) . . . . ?
 O7AA S2 O11 Ce1 -115.81(17) . . . . ?
 O7 S3 O1 Ce1 -118.92(17) . . . . ?
 O7 S3 O18 Ce1 120.51(17) . . . . ?
 O0AA S4 O2 Ce1 118.44(17) . . . . ?
 O0AA S4 O19 Ce1 -117.24(17) . . . . ?
 O9 S2 O10 Ce1 -119.53(17) . . . . ?
 O9 S2 O11 Ce1 120.54(17) . . . . ?
 O10 S2 O11 Ce1 1.61(18) . . . . ?
 O11 S2 O10 Ce1 -1.59(18) . . . . ?
 O12 S1 O14 Ce1 117.08(17) . . . . ?
 O12 S1 O15 Ce1 -117.93(18) . . . . ?
 O13 S3 O1 Ce1 115.96(17) . . . . ?
 O13 S3 O18 Ce1 -116.83(18) . . . . ?
 O14 S1 O15 Ce1 1.50(19) . . . . ?
 O15 S1 O14 Ce1 -1.46(18) . . . . ?
 O16 S1 O14 Ce1 -117.87(17) . . . . ?
 O16 S1 O15 Ce1 119.38(17) . . . . ?
 O17 S5 O3 Ce1 -118.71(18) . . . . ?
 O17 S5 O20 Ce1 119.42(17) . . . . ?
 O18 S3 O1 Ce1 -2.11(18) . . . . ?
 O19 S4 O2 Ce1 1.27(18) . . . . ?
 O20 S5 O3 Ce1 -1.00(15) . . . . ?

_shelx_res_file
;
TITL nh4ce(so4)_a.res in P2(1)/m
    nh46ceso45.res
    created by SHELXL-2018/3 at 16:00:22 on 07-Jul-2021
REM Old TITL NH4Ce(SO4) in P21/n #14
REM SHELXT solution in P2(1)/m: R1 0.074, Rweak 0.001, Alpha 0.045
REM <I/s> 0.337 for 12 systematic absences, Orientation as input
REM Formula found by SHELXT: Ce2 N11 O50 S10
CELL 1.54184 10.4395 20.945 11.611 90 100.536 90
ZERR 2 0.0002 0.0003 0.0002 0 0.001 0
LATT 1
SYMM -X,0.5+Y,-Z
SFAC Ce N O S
UNIT 4 24 98 20

L.S. 99 0 0
PLAN  24
SIZE 0.057 0.078 0.12
TEMP -100.15(10)
CONF
list 4
MORE -1
fmap 2 53
acta
OMIT 0 7 13
REM <olex2.extras>
REM <HklSrc "%./NH46CeSO45.hkl">
REM </olex2.extras>

WGHT    0.063100    7.534900
FVAR       0.22077
CE1   1    0.750039    0.434588    0.749911    11.00000    0.00636    0.00625 =
         0.00450   -0.00016    0.00192    0.00001
S1    4    0.503191    0.419000    0.857313    11.00000    0.00748    0.01321 =
         0.00686    0.00060    0.00348    0.00074
S2    4    0.866188    0.365980    0.981766    11.00000    0.00875    0.01034 =
         0.00562    0.00156    0.00210    0.00099
S3    4    0.634279    0.367461    0.514250    11.00000    0.00960    0.00928 =
         0.00531   -0.00128    0.00160   -0.00134
S4    4    0.996984    0.430039    0.643470    11.00000    0.00792    0.01336 =
         0.00743   -0.00135    0.00319   -0.00030
S5    4    0.739820    0.580361    0.752146    11.00000    0.01361    0.00738 =
         0.00784   -0.00057    0.00240    0.00060
O1    3    0.611873    0.434574    0.546902    11.00000    0.00983    0.01142 =
         0.01087   -0.00003    0.00153    0.00176
O2    3    0.966712    0.397114    0.750494    11.00000    0.01160    0.01582 =
         0.00752    0.00030    0.00399    0.00219
O3    3    0.638836    0.534391    0.692745    11.00000    0.01396    0.01060 =
         0.01115   -0.00172    0.00001   -0.00178
O4    3    1.021056    0.384110    0.557214    11.00000    0.02397    0.02140 =
         0.01192   -0.00507    0.00600    0.00523
O8AA  3    0.785863    0.620250    0.665580    11.00000    0.01896    0.01178 =
         0.01428    0.00435    0.00375    0.00077
O7AA  3    0.993427    0.334907    1.001694    11.00000    0.01027    0.01582 =
         0.01375    0.00273    0.00116    0.00442
O7    3    0.696553    0.364427    0.411096    11.00000    0.02184    0.01979 =
         0.00654   -0.00208    0.00517   -0.00004
O0AA  3    1.108367    0.472653    0.678317    11.00000    0.01096    0.01881 =
         0.01915   -0.00189    0.00535   -0.00468
O9    3    0.803409    0.359498    1.084352    11.00000    0.01724    0.01796 =
         0.00865    0.00382    0.00575   -0.00158
O10   3    0.880948    0.434627    0.950627    11.00000    0.01164    0.01032 =
         0.00861   -0.00115    0.00361   -0.00128
O11   3    0.778959    0.339881    0.875051    11.00000    0.01369    0.01142 =
         0.00656   -0.00230   -0.00038   -0.00035
O12   3    0.485924    0.369332    0.940697    11.00000    0.02222    0.01953 =
         0.00975    0.00586    0.00734   -0.00346
O13   3    0.515142    0.330587    0.497214    11.00000    0.01493    0.01919 =
         0.01517   -0.00153    0.00025   -0.00645
O14   3    0.619280    0.459613    0.901751    11.00000    0.01187    0.01459 =
         0.01105   -0.00447    0.00282   -0.00097
O15   3    0.535810    0.389838    0.747404    11.00000    0.01067    0.01441 =
         0.00822   -0.00229    0.00473   -0.00059
O16   3    0.386040    0.458024    0.825818    11.00000    0.00892    0.02314 =
         0.01932    0.00040    0.00500    0.00377
O17   3    0.689610    0.618807    0.838737    11.00000    0.02041    0.01376 =
         0.01492   -0.00655    0.00618    0.00266
O18   3    0.728240    0.343201    0.619888    11.00000    0.01341    0.01094 =
         0.00626   -0.00009    0.00145    0.00069
O19   3    0.875112    0.467513    0.602671    11.00000    0.01103    0.01353 =
         0.00748    0.00309    0.00227    0.00133
O20   3    0.845412    0.536979    0.811641    11.00000    0.01473    0.00937 =
         0.01025    0.00100    0.00159    0.00200
N1    2    0.171188    0.444880    0.941649    11.00000    0.01555    0.02144 =
         0.01077   -0.00210    0.00463   -0.00269
N2    2    0.676322    0.554481    0.441907    11.00000    0.01199    0.01802 =
         0.00952    0.00114    0.00174    0.00038
N3    2    1.060815    0.604099    0.684922    11.00000    0.01981    0.02054 =
         0.01038   -0.00017    0.00069   -0.00160
N4    2    0.416935    0.589292    0.819820    11.00000    0.02038    0.01865 =
         0.01660   -0.00051    0.00314    0.00187
O5    3    1.098076    0.250000    1.178018    10.50000    0.02980    0.02091 =
         0.01589    0.00000   -0.00262    0.00000
O6    3    1.079734    0.250000    0.845487    10.50000    0.02202    0.02692 =
         0.02439    0.00000    0.00887    0.00000
O1AA  3    0.694440    0.250000    0.286611    10.50000    0.05052    0.02807 =
         0.02169    0.00000    0.01444    0.00000
N7    2    0.558138    0.250000    0.718588    10.50000    0.02860    0.02079 =
         0.02208    0.00000    0.01241    0.00000
O2AA  3    0.307377    0.250000    0.387046    10.50000    0.03211    0.02744 =
         0.04194    0.00000    0.00153    0.00000
N3AA  2    0.964058    0.250000    1.365179    10.50000    0.03789    0.02309 =
         0.01221    0.00000    0.01246    0.00000
O4AA  3    0.935106    0.250000    0.611724    10.50000    0.03529    0.03214 =
         0.04275    0.00000    0.00651    0.00000
O5AA  3    0.612433    0.250000    1.032348    10.50000    0.04146    0.03332 =
         0.04161    0.00000    0.00149    0.00000
O6AA  3    0.624107    0.750000    0.887862    10.50000    0.05364
O8    3    0.330380    0.277082    0.820334    11.00000    0.08884    0.09702 =
         0.12750    0.00812    0.01824   -0.00205
N0AA  2    0.218914    0.297360    0.585572    11.00000    0.08716
HKLF 4




REM  nh4ce(so4)_a.res in P2(1)/m
REM wR2 = 0.1205, GooF = S = 1.058, Restrained GooF = 1.058 for all data
REM R1 = 0.0390 for 4049 Fo > 4sig(Fo) and 0.0487 for all 5103 data
REM 335 parameters refined using 0 restraints

END

WGHT      0.0631      7.5350

REM Highest difference peak  1.498,  deepest hole -1.379,  1-sigma level  0.167
Q1    1   0.6535  0.7500  0.9389  10.50000  0.05    1.50
Q2    1   0.5964  0.7500  0.8416  10.50000  0.05    1.44
Q3    1   0.3862  0.5995  0.7428  11.00000  0.05    0.80
Q4    1   1.0953  0.6192  0.7506  11.00000  0.05    0.80
Q5    1   0.7336  0.5449  0.4040  11.00000  0.05    0.76
Q6    1   0.6609  0.5209  0.4621  11.00000  0.05    0.75
Q7    1   0.9856  0.2500  1.3268  10.50000  0.05    0.73
Q8    1   0.2290  0.4442  0.8975  11.00000  0.05    0.72
Q9    1   1.0676  0.2153  1.1400  11.00000  0.05    0.71
Q10   1   0.3612  0.6025  0.8566  11.00000  0.05    0.69
Q11   1   0.1029  0.4366  0.9273  11.00000  0.05    0.67
Q12   1   0.7380  0.4564  0.8403  11.00000  0.05    0.67
Q13   1   0.7070  0.5663  0.4947  11.00000  0.05    0.66
Q14   1   1.0850  0.6203  0.6209  11.00000  0.05    0.66
Q15   1   0.8890  0.2500  1.3380  10.50000  0.05    0.64
Q16   1   0.9577  0.2220  0.5411  11.00000  0.05    0.64
Q17   1   0.1635  0.4802  0.9654  11.00000  0.05    0.63
Q18   1   0.4821  0.2500  0.7438  10.50000  0.05    0.63
Q19   1   0.6142  0.5646  0.4208  11.00000  0.05    0.62
Q20   1   0.2670  0.2500  0.4515  10.50000  0.05    0.62
Q21   1   0.5022  0.2500  0.6613  10.50000  0.05    0.61
Q22   1   1.0579  0.2161  0.8818  11.00000  0.05    0.59
Q23   1   0.1634  0.4219  1.0131  11.00000  0.05    0.59
Q24   1   0.4133  0.5530  0.8195  11.00000  0.05    0.59
;
_shelx_res_checksum                70931
_shelx_hkl_file
;
   0   0  -1    0.22    0.73
   0   0  -2 1335.07   62.79
   0   0  -2 1409.70   64.65
   0   0  -3    0.33    1.16
   0   0  -3    3.49    2.43
   0   0  -4 1155.89   58.96
   0   0  -5   16.94    5.37
   0   0  -5   16.09    2.31
   0   0  -5   17.06    2.73
   0   0  -6  345.96   18.80
   0   0  -6  406.89   27.19
   0   0  -6  372.49   19.64
   0   0  -7   15.13    2.94
   0   0  -7   13.43    3.38
   0   0  -7   15.06    6.00
   0   0  -8 2092.31   96.59
   0   0  -8 2149.78  109.92
   0   0  -8 1991.30   93.92
   0   0  -8 1966.37   94.65
   0   0  -9   77.56    8.73
   0   0  -9   86.29    6.79
   0   0  -9   73.47   14.00
   0   0  -9   75.78    7.32
   0   0 -10 1428.36   73.25
   0   0 -10 1428.88   88.23
   0   0 -10 1483.04   69.78
   0   0 -11    3.17    4.71
   0   0 -11   -3.59    5.75
   0   0 -12 1440.30   65.26
   0   0 -12 1533.17   68.14
   0   0 -13   -0.27    1.49
   0   0 -13    2.78    2.52
   0   1   0   -0.11    0.27
   0  -1  -1  730.14   34.49
   0  -1  -2    2.67    1.92
   0  -1  -2    3.62    0.99
   0   1  -2    3.04    1.39
   0  -1  -3   51.71    3.84
   0  -1  -3   39.30    5.39
   0  -1  -4   90.86    9.02
   0   1  -5  702.13   35.45
   0  -1  -5  756.40   35.51
   0  -1  -5  741.09   35.94
   0  -1  -6    2.61    1.84
   0  -1  -6    1.67    3.54
   0   1  -6    3.78    1.89
   0  -1  -6    2.81    2.16
   0  -1  -7  112.80   14.01
   0   1  -7  124.25    8.28
   0  -1  -7  110.30    8.77
   0  -1  -8   11.60    2.67
   0   1  -8   11.17    3.13
   0   1  -8    6.54    2.61
   0  -1  -8    9.38    2.59
   0   1  -8    9.42    2.39
   0  -1  -8   10.58    5.62
   0  -1  -8   10.66    4.02
   0  -1  -9  949.87   49.29
   0  -1  -9  925.21   62.02
   0   1  -9  948.27   46.23
   0  -1  -9  939.30   46.29
   0   1  -9  937.87   47.38
   0  -1  -9  972.86   47.31
   0  -1 -10   -1.04    3.90
   0   1 -10    4.66    2.78
   0  -1 -10   -0.53    2.51
   0  -1 -10    3.52    6.29
   0  -1 -10    5.46    3.37
   0  -1 -11   15.60    5.31
   0  -1 -11   15.68    3.46
   0  -1 -11   17.66    9.81
   0   1 -12    0.42    2.04
   0  -1 -12    1.51    3.07
   0   1 -12    0.83    2.36
   0  -1 -13   28.77    4.23
   0   1 -13   22.24    2.67
   0  -1 -13   26.64    2.93
   0   2   0 3308.44  150.82
   0   2  -1    1.96    0.91
   0   2   1    2.39    0.77
   0  -2  -1    1.70    0.90
   0   2  -1    2.77    1.01
   0   2  -2 2343.24  104.75
   0  -2  -2 2161.00  104.40
   0  -2  -3    2.39    0.79
   0  -2  -3    0.68    1.72
   0  -2  -4  601.45   33.53
   0  -2  -5   18.30    2.76
   0   2  -5   25.00    3.04
   0   2  -5   21.04    2.66
   0  -2  -5   30.78    2.96
   0  -2  -5   11.39    4.05
   0   2  -5   24.55    2.93
   0   2  -6  661.60   33.55
   0   2  -6  707.89   34.39
   0  -2  -6  690.57   41.68
   0  -2  -6  691.17   34.18
   0  -2  -7   10.48    5.59
   0   2  -7    7.88    2.42
   0  -2  -7   13.99    2.72
   0  -2  -7    6.56    2.48
   0   2  -7   11.80    3.33
   0   2  -7   15.92    2.83
   0  -2  -8  135.76   10.62
   0  -2  -8  133.49    9.34
   0   2  -8  143.23    9.89
   0   2  -8  140.52    9.60
   0  -2  -8  117.21   16.52
   0  -2  -8  134.80    9.10
   0   2  -8  141.82    9.01
   0   2  -9    6.40    7.34
   0  -2  -9   31.03   10.89
   0  -2  -9   33.63    5.90
   0   2  -9   26.49    4.09
   0  -2  -9   24.12    4.05
   0   2  -9   27.65    4.70
   0  -2  -9   30.30    4.42
   0  -2 -10 1111.97   69.49
   0  -2 -10 1035.11   54.52
   0   2 -10 1036.26   68.93
   0  -2 -10 1029.81   51.12
   0  -2 -10 1075.52   52.24
   0  -2 -11    6.87    6.74
   0   2 -11   -3.57    5.72
   0  -2 -11   -2.02    4.12
   0  -2 -11    1.02    2.57
   0   2 -11    2.98    2.28
   0   2 -12  340.56   18.67
   0  -2 -12  381.60   20.93
   0   2 -12  366.17   21.03
   0   2 -12  331.13   18.40
   0  -2 -13    3.11    2.46
   0   2 -13    2.18    2.58
   0   2 -13    0.77    1.40
   0  -2 -13    1.94    1.51
   0   3   0    1.92    1.23
   0   3  -1 3217.72  145.84
   0  -3  -1 3230.24  145.84
   0   3  -1 3126.37  146.64
   0  -3  -2   -0.42    1.59
   0   3  -2    0.87    1.67
   0  -3  -3  147.03   10.48
   0  -3  -3  141.53    7.46
   0  -3  -3  140.50   10.42
   0   3  -4   47.96    6.73
   0  -3  -4   39.30    5.78
   0   3  -5 2205.21  105.59
   0  -3  -5 2304.75  105.55
   0   3  -5 2221.78  105.35
   0  -3  -5 2590.20  112.93
   0   3  -5 2500.51  113.09
   0  -3  -6    0.45    1.89
   0   3  -6    2.90    2.12
   0  -3  -6    1.61    3.65
   0   3  -6    1.59    1.62
   0   3  -6    1.96    1.47
   0   3  -7  688.76   41.89
   0  -3  -7  638.35   40.52
   0  -3  -7  616.42   31.51
   0   3  -7  621.86   31.74
   0   3  -7  595.54   30.83
   0   3  -7  604.99   30.65
   0   3  -7  585.42   29.84
   0   3  -8    2.68    5.67
   0  -3  -8   -2.56    5.41
   0   3  -8    1.09    2.27
   0   3  -8    2.98    1.87
   0  -3  -8    1.44    2.14
   0   3  -8   -0.78    2.80
   0  -3  -8    0.74    2.84
   0   3  -8   -0.61    2.33
   0  -3  -8    2.51    2.05
   0   3  -9 2471.41  123.35
   0  -3  -9 2629.80  138.01
   0   3  -9 2656.43  139.25
   0  -3  -9 2515.66  123.14
   0  -3  -9 2798.98  121.42
   0   3  -9 2510.91  121.16
   0  -3  -9 2579.41  120.68
   0   3 -10   -3.51    6.88
   0  -3 -10   13.39    7.09
   0  -3 -10    1.89    2.52
   0   3 -10    5.22    4.10
   0  -3 -10    0.99    4.03
   0  -3 -10    3.80    2.91
   0  -3 -11  453.92   23.75
   0   3 -11  440.58   23.50
   0   3 -12    7.66    2.45
   0   3 -12    8.32    2.40
   0  -3 -12   13.85    4.20
   0   3 -12    6.61    3.50
   0  -3 -13  117.14    7.06
   0   3 -13  107.02    6.78
   0  -3 -13  118.55    8.35
   0   3 -13  118.26    8.47
   0   4   0 2957.29  136.55
   0   4  -1    5.94    1.19
   0  -4  -1    6.24    1.20
   0   4  -1    4.76    1.88
   0   4   2  565.67   26.66
   0   4  -2  524.43   27.44
   0  -4  -2  535.78   27.42
   0   4   3   14.86    2.40
   0  -4  -3   18.91    3.53
   0  -4  -3   18.08    3.51
   0   4  -3   15.65    3.48
   0  -4  -4  857.36   44.73
   0   4  -4  815.17   44.89
   0  -4  -4  885.74   44.95
   0   4  -5   22.57    2.94
   0  -4  -5   20.71    2.81
   0  -4  -5   18.01    5.01
   0   4  -5   15.49    2.54
   0   4  -5   19.54    5.07
   0  -4  -5   21.84    5.30
   0   4  -6   -0.81    1.66
   0   4  -6   -0.40    1.65
   0  -4  -6   -1.58    3.80
   0   4  -6    5.10    3.85
   0  -4  -6   -0.90    1.79
   0   4  -6   -0.49    1.91
   0   4  -7   -2.16    5.18
   0   4  -7    1.92    1.72
   0  -4  -7    2.02    4.28
   0  -4  -7    4.61    2.40
   0   4  -7    0.62    2.40
   0   4  -7    0.54    2.01
   0  -4  -8  503.57   28.30
   0   4  -8  549.24   29.04
   0  -4  -8  501.21   37.43
   0   4  -8  541.01   39.12
   0   4  -8  546.97   28.15
   0  -4  -8  503.12   26.76
   0   4  -8  517.28   27.27
   0  -4  -8  520.89   27.01
   0  -4  -9   14.80    7.51
   0   4  -9   17.64    3.72
   0   4  -9   15.68    8.71
   0  -4  -9   12.47    3.49
   0   4  -9   12.10    4.31
   0  -4  -9    8.68    4.15
   0  -4  -9    9.11    3.04
   0   4 -10   92.85   16.68
   0  -4 -10  123.27   18.21
   0   4 -10  123.82    8.68
   0   4 -10  107.48   10.69
   0  -4 -10  122.09   10.87
   0  -4 -10  120.76    8.88
   0   4 -11   26.83    3.93
   0  -4 -11   38.57    4.66
   0   4 -11   33.34    4.53
   0   4 -12  204.55   11.97
   0   4 -12  226.61   14.19
   0  -4 -12  226.80   13.86
   0  -4 -12  199.41   12.06
   0   4 -12  201.47   12.33
   0  -4 -13   -1.07    1.46
   0  -4 -13   -0.45    2.00
   0   4 -13    1.45    2.08
   0   4 -13    0.90    1.22
   0   5   0    1.10    1.92
   0   5  -1 2522.66  112.25
   0  -5  -1 2386.83  108.55
   0   5  -1 2336.87  108.50
   0  -5  -2   17.36    2.52
   0   5  -2   10.12    2.13
   0   5   3   83.47    5.94
   0   5  -3   75.20    7.03
   0  -5  -3   73.57    6.81
   0   5   4    5.22    1.73
   0  -5  -4    1.92    2.66
   0   5  -4    4.80    2.67
   0  -5  -4    6.22    2.67
   0   5   5  328.73   18.90
   0   5  -5  315.00   16.85
   0  -5  -5  320.36   21.55
   0  -5  -5  317.20   16.69
   0   5  -5  345.16   22.60
   0  -5  -5  368.84   22.27
   0   5  -5  295.72   16.72
   0   5   6    6.86    2.85
   0   5  -6    3.39    3.34
   0   5  -6    9.94    2.42
   0  -5  -6    7.96    2.34
   0   5  -6    6.38    2.45
   0   5  -7  783.80   39.66
   0   5  -7  796.67   49.65
   0  -5  -7  812.10   40.20
   0  -5  -7  814.61   48.98
   0   5  -7  819.75   40.65
   0   5  -7  806.31   39.66
   0   5  -7  816.69   40.29
   0  -5  -7  774.16   40.14
   0   5  -8    2.64    5.20
   0  -5  -8   12.27    6.81
   0   5  -8    7.80    2.67
   0   5  -8   11.90    2.73
   0   5  -8    5.48    3.09
   0  -5  -8    9.29    3.26
   0   5  -9  288.25   16.60
   0  -5  -9  261.16   16.01
   0  -5  -9  250.87   17.51
   0  -5  -9  248.07   26.22
   0   5  -9  296.66   18.53
   0   5  -9  281.80   15.80
   0  -5 -10    3.13    6.63
   0   5 -10   -3.35    5.36
   0   5 -10    1.51    2.58
   0  -5 -10   -0.56    2.78
   0   5 -10    3.99    3.83
   0  -5 -10    5.52    4.48
   0   5 -11 1543.34   71.79
   0  -5 -11 1502.47   71.98
   0  -5 -11 1617.23   73.99
   0   5 -11 1465.67   73.95
   0   5 -11 1459.72   72.39
   0   5 -12    1.46    1.78
   0  -5 -12    1.81    2.81
   0   5 -12   -1.95    2.99
   0  -5 -12    0.80    2.19
   0   5 -12    2.76    2.12
   0   5 -13   87.38    6.69
   0  -5 -13   84.13    6.44
   0   6   0 6805.37  311.92
   0   6   1    5.73    2.76
   0  -6  -1    5.51    0.96
   0   6  -1    6.06    0.92
   0   6  -1    7.34    3.34
   0   6  -2 4689.67  221.10
   0   6  -2 4868.11  219.25
   0  -6  -2 4791.81  219.16
   0   6  -3   45.30    5.05
   0  -6  -3   41.65    4.83
   0   6   4  549.72   28.23
   0  -6  -4  596.04   32.00
   0   6  -4  491.30   30.52
   0  -6  -4  568.00   30.73
   0   6  -5    9.06    2.26
   0  -6  -5    6.70    1.88
   0   6   5   11.49    2.78
   0   6  -5    9.00    2.14
   0  -6  -5   12.44    4.24
   0  -6  -5   16.42    4.52
   0   6  -5    7.75    3.75
   0  -6  -6 1018.99   48.19
   0   6  -6  998.66   48.52
   0   6  -6 1024.33   56.45
   0  -6  -6 1004.21   55.39
   0   6  -6  964.33   48.19
   0   6  -7   12.70    2.51
   0   6  -7    8.76    2.68
   0  -6  -7   17.01    3.46
   0   6  -7    7.00    2.69
   0  -6  -7   13.15    3.31
   0   6  -7    6.60    2.42
   0   6  -7   17.20    5.98
   0  -6  -7   15.61    5.43
   0  -6  -8  533.14   39.83
   0   6  -8  600.55   32.00
   0   6  -8  566.54   41.53
   0  -6  -8  647.82   31.89
   0   6  -8  570.37   29.68
   0   6  -8  584.25   30.52
   0   6  -9   12.71    4.33
   0  -6  -9   14.01    4.41
   0  -6  -9   10.83    3.51
   0   6  -9    8.81    2.73
   0  -6  -9   25.26    8.71
   0   6  -9    9.83    2.99
   0   6  -9   18.22    7.31
   0   6 -10 2482.33  137.23
   0  -6 -10 2572.06  136.11
   0   6 -10 2575.38  119.28
   0  -6 -10 2602.34  119.80
   0   6 -10 2603.93  120.42
   0   6 -10 2495.60  122.37
   0  -6 -10 2514.63  121.94
   0   6 -11   15.42    3.13
   0  -6 -11    6.98    2.99
   0   6 -11   10.01    3.42
   0  -6 -11    4.20    2.94
   0   6 -11   10.55    3.83
   0   6 -12  341.37   17.90
   0  -6 -12  335.71   18.15
   0   6 -12  347.12   18.65
   0  -6 -12  342.29   19.12
   0   6 -12  342.53   19.48
   0  -6 -12  356.57   19.35
   0   6 -13    0.25    0.54
   0   7   0   -2.41    2.41
   0   7  -1 1130.11   58.07
   0   7   1 1133.86   57.09
   0   7  -2   33.17    3.37
   0  -7  -2   34.41    3.42
   0   7  -2   32.09    5.15
   0  -7  -3  231.53   14.07
   0   7  -3  215.34   14.01
   0   7  -3  228.19   12.15
   0  -7  -4   41.23    6.74
   0  -7  -4   35.27    5.12
   0   7  -4   32.45    5.17
   0  -7  -5   76.85    9.46
   0   7  -5   78.67    5.94
   0  -7  -5   82.34    5.78
   0  -7  -5   81.12    9.00
   0   7  -5   77.98    9.51
   0  -7  -6   29.77    4.12
   0   7  -6   20.21    5.84
   0  -7  -6   33.26    6.63
   0  -7  -6   25.55    3.36
   0   7  -6   26.02    3.72
   0  -7  -6   26.59    6.61
   0   7  -6   27.55    3.66
   0   7  -7  119.51    8.21
   0   7  -7  118.26    8.64
   0  -7  -7  115.18   14.27
   0   7  -7  115.38   14.58
   0   7  -7  121.63    9.33
   0  -7  -7  129.27    9.13
   0   7  -7  125.65    8.99
   0  -7  -7  139.86    9.68
   0   7  -8    7.01    3.12
   0  -7  -8    0.69    2.54
   0   7  -8    5.19    4.65
   0   7  -8    0.59    2.49
   0  -7  -8    7.05    5.65
   0   7  -8    3.23    2.06
   0   7   8    4.46    4.00
   0   7  -9    9.80    3.78
   0  -7  -9   -0.80    2.80
   0   7  -9    5.57    2.58
   0   7  -9    2.96    5.31
   0  -7  -9   13.59    6.88
   0   7  -9    3.95    2.34
   0   7 -10    1.84    2.46
   0  -7 -10    2.87    4.59
   0   7 -10    3.11    4.97
   0   7 -10    1.97    2.39
   0   7 -10   -0.66    2.75
   0  -7 -10    3.97    3.18
   0   7 -10   -0.77    2.89
   0   7 -11   88.53    6.76
   0   7 -11   87.42    7.48
   0  -7 -11   88.50    7.08
   0  -7 -11   81.07    7.67
   0   7 -11   82.42    7.72
   0   7 -12    2.26    1.78
   0   7 -12    0.45    2.19
   0  -7 -12   -0.99    2.56
   0  -7 -12   -0.98    2.15
   0   7 -12    5.25    2.55
   0  -7 -12   -0.75    2.11
   0   7 -13    0.96    0.64
   0   8   0  389.02   23.59
   0   8  -1    3.58    3.57
   0   8   1    2.98    2.39
   0   8  -2 1447.54   71.60
   0  -8  -2 1632.94   72.02
   0   8  -2 1625.05   77.22
   0   8  -3   46.84    5.18
   0   8  -3   48.94    4.10
   0  -8  -3   52.74    5.12
   0   8  -4  570.45   33.08
   0  -8  -4  635.80   33.38
   0  -8  -4  624.02   35.58
   0   8  -5    3.75    2.83
   0  -8  -5    1.15    2.90
   0  -8  -5    2.83    3.40
   0   8  -5    0.38    1.56
   0  -8  -5    0.67    1.40
   0   8  -6 1382.78   76.06
   0  -8  -6 1468.02   68.36
   0   8  -6 1412.82   68.66
   0  -8  -6 1371.15   74.92
   0  -8  -6 1524.07   69.13
   0  -8  -6 1589.68   77.59
   0   8  -6 1443.57   67.87
   0   8  -6 1382.25   68.83
   0  -8  -7   14.08    3.44
   0  -8  -7   13.21    5.49
   0   8  -7   23.15    6.98
   0   8  -7   16.25    3.49
   0   8  -7   16.57    3.39
   0  -8  -7   15.00    3.20
   0   8  -7   18.44    2.94
   0   8   8  846.51   52.27
   0   8  -8  825.19   41.29
   0   8  -8  813.61   40.18
   0   8  -8  844.09   41.32
   0  -8  -8  809.49   51.31
   0  -8  -8  869.23   41.83
   0   8  -8  777.43   41.92
   0   8  -8  791.42   40.93
   0   8  -8  732.54   51.31
   0   8  -9   29.24    4.10
   0   8  -9   35.04    4.94
   0  -8  -9   34.00    9.69
   0   8  -9   32.49    4.64
   0   8  -9   37.24    9.83
   0  -8  -9   33.74    5.36
   0   8  -9   25.86    5.13
   0   8 -10 1596.35   80.53
   0  -8 -10 1690.45   80.35
   0   8 -10 1746.10   80.63
   0   8 -10 1645.26   79.03
   0   8 -10 1746.42   80.11
   0   8 -10 1553.03   94.07
   0  -8 -10 1606.02   93.08
   0  -8 -10 1688.17   79.77
   0   8 -11   12.95    3.46
   0   8 -11    9.65    2.57
   0  -8 -11    8.69    3.07
   0   8 -11    5.59    2.67
   0   8 -11   10.56    2.53
   0  -8 -11   13.48    3.25
   0   8 -12  231.31   13.61
   0  -8 -12  241.10   13.95
   0   8 -12  230.61   13.68
   0  -8 -12  231.79   13.57
   0  -8 -12  252.84   13.30
   0   8 -13   -0.44    0.53
   0   9   0   -0.28    0.99
   0   9   0    6.58    3.51
   0   9  -1  634.68   31.47
   0   9   1  690.64   37.30
   0   9  -1  675.12   38.71
   0   9   2    0.80    1.23
   0   9   2   -1.25    2.46
   0   9  -2   -1.25    2.99
   0   9  -2    0.70    0.46
   0   9   3  121.57    7.07
   0  -9  -3  106.08    8.23
   0   9  -3  110.47    8.30
   0  -9  -4    3.90    3.61
   0   9  -4   -0.85    1.92
   0  -9  -4   -1.66    1.99
   0   9   4    0.29    1.10
   0   9  -5   17.36    2.75
   0   9  -5   15.28    2.40
   0  -9  -5    9.08    4.42
   0  -9  -5   16.98    4.21
   0   9  -5   16.79    4.35
   0   9  -6   10.77    2.97
   0  -9  -6   12.14    2.89
   0   9  -6   10.35    2.29
   0   9  -6    8.37    2.30
   0  -9  -6    5.18    3.68
   0   9  -6    8.00    3.65
   0  -9  -6    8.83    4.10
   0   9  -7  246.84   15.34
   0   9   7  249.26   23.81
   0   9  -7  242.20   14.87
   0   9  -7  248.67   14.30
   0  -9  -7  254.91   21.60
   0  -9  -7  260.67   14.97
   0   9  -7  243.07   15.20
   0   9  -7  226.02   21.44
   0  -9  -7  273.74   15.88
   0   9  -8   -6.46    2.93
   0   9  -8    2.44    3.91
   0   9  -8    0.62    2.28
   0  -9  -8    6.65    4.69
   0   9  -8    0.64    2.55
   0   9  -8   -1.94    2.36
   0   9   8   -2.63    5.16
   0  -9  -8   -0.65    2.44
   0   9  -8    4.45    2.78
   0   9  -9   55.37    5.75
   0   9  -9   78.57    7.22
   0   9  -9   59.98    6.32
   0  -9  -9   65.97    6.51
   0   9  -9   69.27    6.59
   0   9  -9   75.91   12.98
   0   9 -10    0.58    2.33
   0  -9 -10   -1.13    2.93
   0   9 -10    0.47    2.34
   0   9 -10   -0.68    2.91
   0   9 -10   -1.95    2.70
   0  -9 -10   -0.60    2.51
   0   9 -11  424.77   23.72
   0   9 -11  512.14   25.11
   0   9 -11  452.10   24.39
   0  -9 -11  465.01   24.31
   0  -9 -11  466.58   24.10
   0  -9 -12    3.06    2.48
   0   9 -12    1.65    2.06
   0  -9 -12    1.67    1.97
   0  -9 -13   76.40    5.24
   0  10   0 4607.24  219.56
   0  10   0 4588.19  216.42
   0  10  -1   39.04    7.78
   0  10   1   39.55    7.43
   0  10   1   39.07    3.53
   0  10  -1   36.46    3.55
   0  10  -2  107.56    7.41
   0  10   2  121.18    7.22
   0  10   3   33.05    6.88
   0  10   3   39.27    3.52
   0 -10  -4   97.85   10.46
   0  10   4   85.39    5.64
   0 -10  -5   11.27    4.84
   0  10  -5    7.20    2.01
   0  10  -5    8.89    3.11
   0  10  -5    9.02    2.34
   0 -10  -5   12.05    2.65
   0 -10  -6  139.02   14.54
   0  10  -6   90.37    8.29
   0  10  -6  128.15    8.15
   0  10  -6  101.90   11.76
   0 -10  -6  126.15   12.62
   0 -10  -6  131.93    9.19
   0 -10  -7   28.85    4.62
   0  10  -7   28.63    7.00
   0  10   7   24.90    8.71
   0  10  -7   36.61    4.14
   0  10  -7   41.67    5.19
   0  10  -8  189.47   12.96
   0  10   8  163.78   20.61
   0 -10  -8  202.45   12.31
   0  10  -8  183.78   12.31
   0  10  -8  190.67   12.86
   0  10  -8  208.85   12.24
   0  10  -8  201.20   12.90
   0 -10  -9   39.15    4.86
   0  10  -9   40.35    5.04
   0  10  -9   42.49    4.83
   0  10  -9   34.87    4.89
   0  10  -9   47.82    5.64
   0  10 -10   19.91    3.54
   0 -10 -10   14.48    3.62
   0  10 -10   19.91    3.37
   0  10 -10   27.92    4.31
   0  10 -10   21.79    3.58
   0  10 -10   15.48    4.23
   0 -10 -11   47.69    4.56
   0  10 -11   42.06    4.93
   0 -10 -12   56.80    4.55
   0 -10 -12   60.69    5.19
   0  10 -12   57.65    4.99
   0 -10 -13    2.56    1.35
   0  11   0    1.44    3.05
   0  11   0   -1.97    4.45
   0  11   1 1748.50   88.84
   0  11   1 1747.90   80.72
   0  11  -1 1693.52   81.02
   0  11  -1 1817.84   91.47
   0  11   2    1.61    3.41
   0  11  -2   -0.85    1.67
   0  11   2    1.72    1.37
   0  11  -2    1.66    3.26
   0  11   3  294.78   16.05
   0  11   3  358.10   24.85
   0  11  -4   10.46    2.29
   0 -11  -4   11.96    4.95
   0  11   4    8.88    2.10
   0  11   4   13.70    5.67
   0 -11  -5   62.76    9.73
   0  11  -5   62.62    5.56
   0 -11  -5   64.21    5.84
   0 -11  -6    1.17    2.39
   0 -11  -6    3.74    4.73
   0  11  -6    3.66    2.04
   0  11  -6   -0.66    2.16
   0  11  -6    1.61    2.06
   0  11   6    2.85    5.10
   0  11  -7  282.52   17.32
   0  11  -7  280.85   16.08
   0 -11  -7  301.53   17.45
   0  11   7  239.32   26.18
   0  11  -8    1.39    2.43
   0  11   8    5.98    6.33
   0  11  -8   -0.51    2.59
   0  11  -8    2.58    2.73
   0  11  -9  906.67   45.55
   0  11  -9  928.90   46.43
   0 -11 -10   -1.08    2.87
   0  11 -10    0.61    2.50
   0  11 -10    1.32    2.80
   0  11 -10    0.51    1.96
   0 -11 -11  525.06   27.14
   0  11 -11  583.18   28.23
   0  11 -11  514.99   27.13
   0 -11 -12    0.55    1.52
   0 -11 -12    0.72    1.85
   0  11 -12   -0.35    1.74
   0 -11 -13   38.00    2.95
   0  12   0   19.01    2.97
   0  12   0   24.73    7.68
   0  12  -1   17.83    3.05
   0  12   1   15.28    5.15
   0  12  -1   16.86    6.36
   0  12   1   21.16    6.57
   0  12  -2  551.53   29.38
   0  12   2  607.48   29.05
   0  12   2  646.93   41.82
   0  12  -2  517.10   36.50
   0  12   2  588.16   37.48
   0  12  -3    6.69    2.18
   0  12   3    5.86    3.84
   0  12   3    4.27    1.63
   0 -12  -4   -1.59    3.11
   0  12   4    3.91    1.80
   0  12  -4    2.30    1.88
   0  12   4    2.15    4.54
   0 -12  -4    1.34    1.64
   0 -12  -5   -1.77    4.02
   0  12   5   -2.40    4.30
   0 -12  -5    3.11    2.12
   0  12   5    2.92    5.73
   0  12  -5    5.12    2.49
   0  12  -6   81.88    7.30
   0 -12  -6   80.45   11.47
   0 -12  -6   77.55    7.03
   0  12  -6   69.79    6.60
   0  12   6   77.50   14.45
   0  12   7   16.04    8.14
   0  12  -7   16.88    4.04
   0 -12  -7   12.87    3.70
   0  12  -8  700.94   35.51
   0  12   8  611.18   47.47
   0  12  -8  666.16   34.86
   0  12  -9    0.71    3.00
   0  12  -9   -2.31    2.17
   0 -12 -10  398.66   21.86
   0  12 -10  420.97   22.51
   0  12 -10  401.83   22.70
   0 -12 -11   -0.77    2.16
   0  12 -11    1.24    1.87
   0  12 -11    1.48    2.27
   0 -12 -12    4.41    2.04
   0 -12 -12    3.57    1.63
   0  13   0   -0.48    1.70
   0  13   0   -2.54    4.54
   0  13   1 1058.66   58.70
   0  13   1 1114.50   63.99
   0  13  -1 1010.48   60.80
   0  13  -1  985.22   49.20
   0  13   2    2.02    3.95
   0  13  -2    0.42    1.85
   0  13   2    2.76    6.25
   0  13  -2    0.46    1.86
   0  13  -2    0.52    1.68
   0  13  -3  227.74   13.73
   0  13   3  228.60   21.82
   0  13   3  251.38   13.76
   0  13   4   18.71    6.53
   0  13  -4   17.59    3.19
   0 -13  -4   23.45    6.20
   0  13   4   15.04    8.03
   0  13   4   17.66    2.85
   0 -13  -5 1439.37   67.28
   0  13  -5 1377.26   67.38
   0 -13  -5 1374.91   75.62
   0  13   5 1477.18   84.79
   0  13   5 1365.16   79.92
   0 -13  -6   62.02    6.34
   0 -13  -6   65.66   10.34
   0  13  -6   76.42    6.79
   0  13   6   70.99   13.00
   0  13  -6   67.28    7.05
   0  13   6   46.93   12.66
   0  13   7   51.07   12.62
   0 -13  -7   41.49    5.38
   0  13  -7   52.94    5.67
   0  13  -7   28.07    5.19
   0  13   7   42.62   10.78
   0  13   8    6.14    6.52
   0  13   8    6.48    5.82
   0  13  -8   10.65    3.09
   0  13  -8   15.68    3.98
   0  13  -9  889.94   45.39
   0  13  -9  902.08   44.23
   0 -13 -10   13.48    3.24
   0  13 -10   12.62    3.21
   0  13 -10   16.22    3.68
   0 -13 -11  116.44    7.74
   0  13 -11  132.18    8.59
   0  13 -11  122.96    8.10
   0 -13 -12   31.78    2.73
   0 -13 -12   31.61    3.16
   0  14   0  727.16   48.14
   0  14   0  665.97   33.74
   0  14   0  654.25   32.99
   0  14   1   10.62    5.39
   0  14   1    8.97    7.19
   0  14  -1   -2.61    4.68
   0  14  -1    9.41    2.79
   0  14   1    9.99    2.24
   0  14  -1    8.76    2.36
   0  14   2   93.54   13.11
   0  14  -2   64.95    5.97
   0  14   2   67.93   13.90
   0  14  -2   71.99    6.43
   0  14  -3    9.52    2.77
   0  14  -3    6.51    2.63
   0  14   3    7.07    4.63
   0  14  -4  709.30   36.75
   0 -14  -4  781.00   44.74
   0  14   4  770.65   52.85
   0  14   4  728.23   48.35
   0 -14  -5    2.15    2.12
   0 -14  -5    1.86    3.66
   0  14  -5    7.67    2.91
   0  14   5    3.45    5.52
   0  14   5    5.48    6.21
   0  14  -6  560.40   31.35
   0 -14  -6  626.86   30.67
   0  14  -6  579.54   30.74
   0 -14  -6  519.77   37.10
   0  14   6  662.93   47.95
   0  14   6  520.83   41.75
   0  14   7   67.39   14.05
   0  14  -7   50.68    6.01
   0  14  -7   47.02    6.06
   0  14   8 1017.67   69.18
   0  14  -8 1128.07   55.74
   0  14  -8 1119.29   56.47
   0  14  -8 1237.46   57.41
   0  14  -9    0.69    3.11
   0 -14 -10  986.38   49.31
   0  14 -10 1056.64   50.15
   0  14 -10 1041.74   50.24
   0 -14 -11    0.30    1.71
   0  14 -11    1.34    1.40
   0 -14 -12  251.29   12.80
   0  15   0   -3.14    6.15
   0  15   0    1.19    2.28
   0  15   0   -1.44    2.00
   0  15   1    3.32    5.94
   0  15  -1    2.84    5.57
   0  15   1   -1.16    2.23
   0  15  -1    3.04    2.43
   0  15  -1    1.02    2.04
   0  15   1   -0.92    1.60
   0  15   2    2.43    4.36
   0  15   2   10.24    7.73
   0  15  -2    1.89    2.67
   0  15  -2    3.82    2.40
   0  15  -3  123.84    9.22
   0  15   3  118.35   18.49
   0  15   3  132.57   16.77
   0  15  -4    8.81    3.13
   0 -15  -4    5.42    4.36
   0  15  -4    9.27    3.06
   0  15   4   10.70    9.89
   0  15   4    5.39    4.84
   0  15  -5  962.03   47.37
   0  15  -5  915.45   46.76
   0 -15  -5  959.31   54.81
   0  15   5 1031.46   65.80
   0  15   5  882.93   59.44
   0  15  -6    2.37    3.03
   0 -15  -6    4.11    2.70
   0  15  -6    3.68    3.44
   0  15   6    3.04    5.96
   0  15  -6    1.99    2.75
   0 -15  -6   -1.87    3.34
   0  15   6    3.73    5.96
   0  15   7  141.52   20.59
   0  15  -7  150.19   10.55
   0  15   7  111.48   17.15
   0  15  -7  122.62   10.30
   0  15  -8   19.09    3.45
   0  15  -8   18.13    3.92
   0  15  -8   25.93    4.54
   0  15  -8   26.14    5.06
   0  15  -9    1.73    2.02
   0  15  -9    3.93    2.96
   0 -15 -10   14.78    2.88
   0  15 -10   10.42    2.86
   0 -15 -11   94.08    4.13
   0  15 -11    0.28    0.72
   0  16   0 1580.48   95.23
   0  16   0 1623.21   78.43
   0  16   0 1652.25   77.68
   0  16   1   25.39    9.73
   0  16   1   25.51    4.37
   0  16  -1   37.77    5.11
   0  16  -1   32.43    4.44
   0  16  -2  104.43    8.45
   0  16   2  103.57    8.26
   0  16  -2   95.03    7.92
   0  16   2  107.71   18.86
   0  16   2   81.30   13.85
   0  16  -3   33.67    4.55
   0  16   3   33.74   12.08
   0  16   3   21.72    8.25
   0 -16  -4  964.72   56.41
   0  16   4 1052.72   63.33
   0  16  -4  986.39   49.36
   0  16  -5   -0.70    2.82
   0 -16  -5   -1.84    3.29
   0  16  -5   -1.93    2.68
   0  16   5   11.47    7.50
   0  16   5   -2.96    5.81
   0  16  -6  407.19   23.22
   0  16  -6  422.62   22.95
   0  16  -6  416.25   23.59
   0  16   6  351.72   32.93
   0  16  -7   40.62    5.64
   0  16  -7   46.82    5.83
   0  16  -8  527.36   29.03
   0  16  -8  558.45   28.76
   0  16  -8  517.82   28.24
   0  16  -9   11.61    3.28
   0  16  -9    0.53    1.20
   0  16 -10  898.43   40.54
   0 -16 -10  772.93   39.41
   0 -16 -11    6.39    1.43
   0  17   0    3.62    5.01
   0  17   0    2.09    2.84
   0  17   0    1.72    2.05
   0  17   1  197.77   25.41
   0  17   1  174.83   12.77
   0  17  -1  208.69   13.48
   0  17  -1  203.75   12.76
   0  17   2    3.96    6.36
   0  17  -2   11.34    3.26
   0  17   2   12.15    3.07
   0  17   2    6.72    3.12
   0  17  -2    9.39    3.63
   0  17   3   93.71   15.08
   0  17   3   94.96   18.21
   0  17   3  104.58    8.42
   0  17  -3  100.43    8.49
   0 -17  -4   25.55    6.49
   0  17   4   32.06    9.42
   0  17   4   27.06    4.28
   0  17  -4   29.45    4.76
   0  17   5  119.54   17.25
   0  17   5   81.86   16.62
   0  17   5  104.48    8.33
   0  17  -5  112.99    9.22
   0  17   6    6.01    5.38
   0  17   6    0.54    2.03
   0  17  -6   -1.55    3.03
   0  17  -6    0.74    3.07
   0  17   6   -3.80    5.27
   0  17  -7   78.03    7.43
   0  17  -8    1.66    2.26
   0  17  -8    0.68    2.86
   0  17  -9  602.33   15.11
   0  17  -9    0.92    1.18
   0  17 -10    1.51    1.82
   0 -17 -10    1.65    1.67
   0  18   0  100.96    8.67
   0  18   1   12.12    7.95
   0  18  -1   19.73    3.89
   0  18  -1   19.28    4.26
   0  18   1   12.95    3.93
   0  18  -2   91.04    7.70
   0  18   2   78.62    7.19
   0  18  -2   85.44    8.00
   0  18   2   72.77    7.23
   0  18   3   -4.07    6.52
   0  18   3    0.67    2.52
   0  18  -3   -0.68    2.77
   0  18   4  105.52   16.08
   0  18   4  115.55   19.69
   0  18   4   87.51    7.96
   0  18  -4  127.71    9.43
   0  18   5    2.94    5.26
   0  18   5   -3.87    6.19
   0  18   5   -0.58    2.33
   0  18  -5   -1.43    3.02
   0  18  -6  204.91   13.72
   0  18  -6  194.42   13.49
   0  18  -7    6.85    3.09
   0  18  -7    9.03    3.57
   0  18  -8    7.59    2.40
   0  18  -8    9.53    3.24
   0  18  -9   46.94    5.04
   0 -18 -10  141.07    8.01
   0  18 -10  151.55    8.62
   0  19   0    0.75    2.99
   0  19  -1 1068.51   54.01
   0  19   1 1018.91   53.54
   0  19  -1 1089.99   53.23
   0  19   1 1137.84   53.98
   0  19   2   22.61    4.33
   0  19  -2   25.01    4.40
   0  19   2   23.56    4.06
   0  19   2   37.39   12.04
   0  19   3  508.92   27.37
   0  19  -3  500.41   27.37
   0  19   3  484.75   44.15
   0  19   4    0.62    2.31
   0  19  -4    4.18    3.25
   0  19   5  796.82   40.84
   0  19  -5  856.83   42.20
   0  19  -6   14.04    3.25
   0  19  -6   19.88    4.41
   0  19  -7  411.04   22.43
   0  19  -7  423.02   23.23
   0  19  -8   27.01    4.18
   0 -19  -9  403.27   20.98
   0  19  -9  457.82   22.16
   0  20   0  540.78   30.42
   0  20   0  589.82   30.83
   0  20   1   15.07    3.86
   0  20   1   14.12    3.54
   0  20   2   31.48    4.89
   0  20  -2   45.62    5.53
   0  20   3    1.27    2.33
   0  20  -3   -1.35    2.70
   0  20   4  166.88   11.05
   0  20  -4  161.55   11.58
   0  20   5    0.49    1.93
   0  20  -5    2.04    2.61
   0  20  -5    4.67    3.11
   0  20  -6   11.64    3.06
   0  20  -6   12.11    3.61
   0  20  -7    6.09    2.14
   0  20  -7    7.50    3.11
   0  20  -7    6.57    2.94
   0  20  -8  263.65   14.87
   0 -20  -9    3.75    1.33
   0  21   0   -0.71    2.72
   0  21   0    0.73    3.04
   0  21   1  556.47   30.68
   0  21  -1  629.99   31.89
   0  21   1  567.89   30.70
   0  21   2   62.29    6.34
   0  21   3  642.22   34.14
   0  21  -3  704.52   34.86
   0  21   4    1.01    1.99
   0  21  -4    4.42    3.16
   0  21  -5  629.70   31.93
   0  21  -5  598.31   31.90
   0  21  -6    3.34    2.33
   0  21  -6    2.27    2.54
   0  21  -6    8.36    3.44
   0  21  -7  684.97   34.62
   0  21  -7  697.25   35.05
   0  21  -8   12.57    2.29
   0  22   0  676.91   35.13
   0  22   1   56.53    5.79
   0  22  -1   52.88    6.13
   0  22   2  889.36   45.00
   0  22  -2  937.87   46.35
   0  22   3   86.43    7.06
   0  22  -3   92.75    8.39
   0  22   4   89.30    6.82
   0  22  -4  102.27    8.75
   0  22  -5    0.49    1.97
   0 -22  -5   -2.64    2.67
   0  22  -6  494.67   26.33
   0  22  -7    0.83    1.89
   0  23   0   -1.13    2.44
   0  23  -1    3.08    2.75
   0  23  -2    3.83    2.85
   0  23  -3   77.42    7.14
   0  23  -4    6.15    2.34
   0  23  -4   -0.62    2.72
   0  23  -5  152.18   10.37
   0  23  -6    7.64    2.38
   0  24   0   39.72    4.24
   0  24  -1   31.02    4.18
   0  24  -2  289.97   16.68
   0  24  -3   79.25    6.86
   0  24  -4  335.37   18.58
   0  24  -5    5.50    2.13
   0  25  -1  420.84   21.48
   0  25  -2   59.30    5.14
   0  25  -3  242.00   13.56
   0  25  -4    0.35    1.37
   0  26   1    2.78    1.63
   0  26  -2  128.30    8.23
   1   0 -14    1.24    1.06
   1   0 -13 1158.99   55.77
   1   0 -13 1127.80   53.89
   1   0 -12    6.49    3.04
   1   0 -12    6.37    3.78
   1   0 -11   62.79    7.39
   1   0 -11   68.94    7.88
   1   0 -11   72.81    6.98
   1   0 -11   71.90    6.59
   1   0 -10    4.37    3.03
   1   0 -10    2.01    2.89
   1   0 -10    6.20    4.82
   1   0 -10    3.36    2.94
   1   0 -10    3.48    8.36
   1   0  -9 4979.30  242.64
   1   0  -9 4961.84  227.72
   1   0  -9 4801.98  225.41
   1   0  -9 4936.20  224.81
   1   0  -9 4895.89  225.73
   1   0  -8    2.52    5.71
   1   0  -8   13.79    2.83
   1   0  -8    8.20    3.18
   1   0  -8    6.52    2.60
   1   0  -7 2094.77  110.56
   1   0  -7 2167.55  101.35
   1   0  -6   16.51    2.97
   1   0  -6   25.02    6.44
   1   0  -6   19.84    2.53
   1   0  -5 4150.43  192.42
   1   0  -5 4042.32  185.92
   1   0  -4   46.82    6.08
   1   0  -3  292.19   17.27
   1   0  -2    1.25    1.56
   1   0  -1 4855.38  220.96
   1   0   0    1.18    0.88
  -1   0  -1 4517.17  205.92
  -1   0  -2    0.92    1.88
   1   0   2    0.29    1.14
   1   0   3 9999.00  453.64
  -1   0  -4   81.07    9.46
   1   0   4   70.47    5.73
  -1   0  -4   77.47    6.77
  -1   0  -5  204.65   11.28
   1   0   5  163.10   11.05
  -1   0  -5  181.03   12.95
  -1   0  -5  194.68   16.86
  -1   0  -6    1.95    4.69
  -1   0  -6    0.53    2.25
  -1   0  -7 1139.90   55.19
  -1   0  -7 1088.75   53.90
  -1   0  -7 1179.48   66.59
  -1   0  -8    1.62    3.30
  -1   0  -8    0.55    2.21
  -1   0  -8    1.17    2.40
  -1   0  -8    1.65    1.86
  -1   0  -8    2.89    6.93
  -1   0  -9 1290.18   65.46
  -1   0  -9 1323.04   80.24
  -1   0  -9 1292.86   62.02
  -1   0  -9 1320.67   63.38
  -1   0 -10   -3.13    4.58
  -1   0 -10    1.42    2.24
  -1   0 -10    3.58    6.40
  -1   0 -10    2.73    3.04
  -1   0 -11  820.00   44.53
  -1   0 -11  842.74   42.31
  -1   0 -12    0.97    1.69
  -1   0 -12    2.18    2.73
  -1   0 -13 1301.77   62.25
   1   1 -14   80.98    5.01
   1  -1 -14   89.68    5.16
   1  -1 -13    4.89    2.26
   1   1 -13    5.52    2.34
   1  -1 -13    4.49    2.47
   1  -1 -13    5.86    2.75
   1   1 -12   15.96    3.88
   1  -1 -12   22.37    4.03
   1  -1 -12   21.11    4.80
   1   1 -12   18.11    3.50
   1  -1 -11    4.29    3.44
   1  -1 -11   -0.88    4.35
   1  -1 -11   -0.67    3.12
   1   1 -11    3.33    3.07
   1  -1 -11    1.66    2.90
   1  -1 -11   10.70    7.55
   1  -1 -10   57.48    6.49
   1   1 -10   51.56    6.43
   1  -1 -10   58.14    8.06
   1   1 -10   46.09    5.79
   1  -1 -10   51.01    6.08
   1  -1 -10   63.40    6.13
   1   1 -10   67.73    6.11
   1  -1 -10   48.14   12.26
   1  -1  -9   20.28    4.06
   1   1  -9   18.17    4.17
   1  -1  -9    9.04    8.05
   1   1  -9   20.14    3.67
   1  -1  -9   24.18    5.15
   1   1  -9   21.18    3.69
   1  -1  -9   21.18    3.83
   1  -1  -8  388.00   29.75
   1  -1  -8  334.13   20.18
   1   1  -8  354.06   18.55
   1  -1  -8  333.66   18.52
   1  -1  -8  333.85   18.81
   1   1  -8  333.87   19.06
   1  -1  -7    0.58    2.29
   1  -1  -7   -1.98    4.76
   1   1  -7    0.40    1.46
   1  -1  -6  648.60   37.81
   1  -1  -6  594.63   30.55
   1   1  -6  610.22   29.67
   1  -1  -5   54.31    4.56
   1  -1  -5   66.30    8.22
   1  -1  -4  647.19   35.11
   1  -1  -3    6.86    2.75
   1  -1  -2  245.04   13.90
   1  -1  -1    2.65    1.22
   1  -1  -1    3.20    0.92
   1  -1  -1    2.83    1.26
   1   1   0 1199.07   55.73
   1   1   0 1198.76   55.30
   1   1   1    4.95    1.76
   1   1   1    5.17    1.45
   1   1   2    7.77    2.18
   1   1   3  347.75   19.75
  -1   1  -3  388.95   20.44
  -1  -1  -4  393.25   22.15
   1   1   4  405.47   22.42
  -1   1  -4  415.99   23.07
  -1  -1  -4  433.07   26.32
  -1  -1  -5   15.94    2.68
  -1  -1  -5   18.47    5.55
   1   1   5   10.65    2.85
  -1   1  -5   13.77    3.51
  -1  -1  -5   18.42    3.42
  -1   1  -6   52.90    4.87
  -1  -1  -6   46.35    8.77
  -1  -1  -6   50.34    5.11
  -1  -1  -7    7.13    5.38
  -1   1  -7    6.04    2.36
  -1  -1  -7    3.92    2.63
  -1   1  -7    6.24    2.32
  -1  -1  -8  841.97   53.72
  -1  -1  -8  786.11   41.04
  -1   1  -8  801.02   39.54
  -1  -1  -8  817.56   39.52
  -1   1  -8  730.80   39.39
  -1  -1  -8  784.58   38.54
  -1   1  -8  796.22   38.44
  -1  -1  -9   -3.29    6.96
  -1  -1  -9   -1.41    2.23
  -1   1  -9    1.36    2.20
  -1  -1  -9    1.88    3.84
  -1   1  -9    7.01    3.10
  -1  -1  -9   -0.65    2.92
  -1  -1 -10   45.74   12.42
  -1   1 -10   33.99    5.34
  -1  -1 -10   40.09    5.71
  -1  -1 -10   61.59    7.68
  -1  -1 -10   43.80    4.73
  -1   1 -11    3.91    3.00
  -1  -1 -11    1.94    3.15
  -1   1 -11    0.42    2.04
  -1  -1 -11    0.99    3.64
  -1   1 -12  189.56   12.30
  -1  -1 -12  206.67   12.37
  -1  -1 -12  205.73   13.21
  -1  -1 -12  170.85   10.55
  -1   1 -12  189.79   10.68
  -1  -1 -13    0.48    2.13
   1  -2 -14    1.61    1.07
   1   2 -14    0.48    0.92
   1  -2 -13  151.14    9.86
   1  -2 -13  154.17   10.56
   1   2 -13  161.42   10.92
   1   2 -13  152.20    9.27
   1  -2 -13  159.07    9.45
   1   2 -12   -0.40    0.84
   1  -2 -12   -1.75    3.00
   1   2 -12    2.94    3.05
   1   2 -12    3.13    3.07
   1  -2 -12    0.75    2.95
   1   2 -12    0.47    2.35
   1  -2 -11  487.75   26.70
   1  -2 -11  448.39   25.23
   1   2 -11  487.28   25.47
   1   2 -11  431.86   23.92
   1  -2 -11  463.97   25.30
   1  -2 -11  392.94   37.95
   1   2 -11  456.23   39.68
   1  -2 -11  460.44   24.52
   1   2 -10   -0.77    3.53
   1  -2 -10    0.69    2.77
   1   2 -10    4.67    3.50
   1  -2 -10    3.37    6.60
   1   2 -10   -3.48    6.22
   1  -2 -10    0.57    2.63
   1  -2 -10   -3.99    4.65
   1  -2  -9  262.59   17.27
   1  -2  -9  290.15   27.28
   1  -2  -9  252.83   15.51
   1   2  -9  257.28   16.07
   1   2  -9  251.54   15.49
   1   2  -9  244.81   26.04
   1   2  -9  258.33   15.03
   1  -2  -9  247.08   15.04
   1   2  -8   -1.77    2.76
   1  -2  -8    5.15    2.26
   1  -2  -8    0.73    2.72
   1  -2  -8   -0.49    2.17
   1   2  -8    0.91    1.81
   1   2  -8    2.12    1.95
   1  -2  -8    2.45    5.54
   1   2  -7 1818.87   86.11
   1   2  -7 1830.62   85.57
   1  -2  -7 1850.56   86.93
   1   2  -7 1861.57   87.08
   1  -2  -7 1809.40   96.24
   1   2  -7 1810.37   85.46
   1  -2  -7 1847.28   85.75
   1  -2  -6    6.74    2.26
   1   2  -6    9.36    2.50
   1  -2  -6    4.58    4.06
   1   2  -6    4.86    1.72
   1  -2  -5 1005.15   48.52
   1  -2  -5 1150.10   54.93
   1   2  -5 1005.30   48.58
   1  -2  -4   73.24    7.69
   1  -2  -3  287.51   16.44
   1   2  -3  251.84   16.06
   1  -2  -2    2.30    1.22
   1   2  -2    1.67    1.60
   1  -2  -2    2.49    1.63
   1  -2  -1  868.89   39.10
   1  -2  -1  808.11   40.27
   1   2  -1  827.34   40.38
   1   2  -1  858.09   40.04
   1  -2  -1  833.37   39.99
   1   2   0    1.42    1.32
  -1   2   0   -0.15    0.62
   1   2   1 2680.27  129.02
   1   2   1 2864.99  128.21
   1   2   2   -0.55    1.87
   1   2   2   -0.34    1.32
  -1  -2  -3 3558.83  165.77
  -1   2  -3 3686.56  165.14
   1   2   3 3477.78  163.43
  -1  -2  -4   41.31    4.65
  -1   2  -4   45.35    5.54
  -1  -2  -4   35.70    6.11
   1   2   4   42.42    4.47
  -1  -2  -4   55.68    6.68
  -1  -2  -5 1519.46   76.46
   1   2   5 1464.70   71.64
  -1  -2  -5 1377.44   67.97
  -1   2  -5 1467.48   68.71
   1   2   5 1478.58   69.74
  -1  -2  -5 1478.80   68.58
  -1  -2  -5 1422.31   70.02
  -1   2  -5 1564.78   72.78
   1   2   6    5.51    2.66
  -1  -2  -6    3.80    4.03
  -1   2  -6    8.18    2.30
  -1  -2  -6    4.64    2.42
  -1   2  -6    6.96    2.59
  -1   2  -7  134.06    9.14
  -1  -2  -7  144.36   10.21
  -1   2  -7  129.60    8.86
  -1  -2  -7  136.96    8.52
  -1   2  -7  117.78    8.89
  -1  -2  -7  135.73   16.23
  -1  -2  -8    1.03    2.30
  -1  -2  -8    3.14    3.26
  -1   2  -8    1.99    1.99
  -1  -2  -8   -0.44    2.04
  -1   2  -8   -2.33    2.80
  -1  -2  -8   -2.81    4.49
  -1   2  -8   -2.90    6.96
  -1   2  -8    2.24    2.37
  -1  -2  -9  470.11   28.03
  -1  -2  -9  480.22   40.02
  -1   2  -9  511.59   40.89
  -1  -2  -9  498.37   25.55
  -1   2  -9  461.54   26.30
  -1   2  -9  528.44   26.80
  -1  -2 -10    1.00    4.24
  -1   2 -10   -1.36    3.34
  -1  -2 -10    1.36    3.31
  -1  -2 -10   -0.49    2.44
  -1  -2 -10   -3.44    6.73
  -1   2 -10   -3.58    5.74
  -1  -2 -11  299.75   18.33
  -1   2 -11  323.21   18.64
  -1  -2 -11  301.85   20.05
  -1   2 -11  306.30   16.95
  -1  -2 -11  329.48   17.28
  -1  -2 -12    3.72    3.13
  -1  -2 -12   -0.67    2.90
  -1   2 -12    3.53    2.53
  -1   2 -12    2.71    1.78
  -1  -2 -12    3.63    1.94
  -1  -2 -13  640.93   32.22
  -1   2 -13  645.62   32.38
  -1  -2 -13  640.95   31.65
   1  -3 -14  350.57   17.10
   1  -3 -13    0.43    2.30
   1  -3 -13    3.71    2.54
   1   3 -13    1.13    2.55
   1   3 -13    1.31    1.72
   1  -3 -13    2.05    2.03
   1   3 -12   53.85    5.04
   1  -3 -12   62.45    6.11
   1  -3 -12   62.68    6.41
   1   3 -12   59.25    6.51
   1   3 -12   53.70    5.37
   1  -3 -12   61.72    5.61
   1  -3 -11    0.65    2.77
   1   3 -11    1.99    3.14
   1  -3 -11    0.66    2.96
   1   3 -11    0.52    2.13
   1  -3 -11    0.83    3.31
   1   3 -11    2.60    3.73
   1  -3 -11   10.07    8.50
   1   3 -11   -7.03    8.44
   1   3 -11    5.94    2.90
   1  -3 -11    0.56    2.88
   1  -3 -10  189.52   12.21
   1   3 -10  196.65   12.77
   1   3 -10  147.67   21.51
   1  -3 -10  200.22   23.51
   1  -3 -10  191.91   12.68
   1   3 -10  166.90   12.98
   1   3  -9    9.38    3.76
   1  -3  -9   11.48    3.26
   1   3  -9    6.18    2.95
   1   3  -9    3.65    3.94
   1  -3  -9    9.45    3.84
   1  -3  -9   11.10    3.37
   1  -3  -9    2.90    6.96
   1   3  -9   -3.04    5.97
   1  -3  -8 1258.31   59.47
   1   3  -8 1230.16   60.19
   1   3  -8 1207.56   59.23
   1   3  -8 1240.90   59.67
   1   3  -8 1215.03   59.03
   1  -3  -8 1242.34   59.44
   1  -3  -8 1241.50   71.48
   1  -3  -8 1280.55   61.08
   1   3  -8 1231.17   72.31
   1   3  -8 1246.75   61.24
   1   3  -7    8.69    2.74
   1  -3  -7    5.66    2.63
   1   3  -7    7.85    2.92
   1   3  -7    5.46    1.98
   1   3  -7    9.10    2.52
   1   3  -7   11.87    2.32
   1   3  -7    8.11    5.14
   1  -3  -7    9.60    5.76
   1   3  -6 2800.18  129.22
   1  -3  -6 2845.88  130.07
   1  -3  -6 2985.47  138.26
   1   3  -6 2970.02  138.73
   1   3  -6 2702.15  130.08
   1   3  -5    6.00    3.62
   1  -3  -5    8.09    3.10
   1   3  -5    9.28    2.20
   1  -3  -5   11.19    2.23
   1  -3  -4  414.69   24.52
   1   3  -4  422.23   24.66
   1  -3  -3    1.23    2.04
   1   3  -3    1.87    1.73
   1  -3  -3    0.51    1.48
   1  -3  -2  228.10   12.35
   1   3  -2  222.99   12.70
   1  -3  -2  209.67   12.58
   1  -3  -1    2.78    1.50
   1   3  -1   -0.32    1.43
   1   3  -1    3.57    1.26
   1  -3  -1    0.52    0.99
  -1   3   1    1.59    0.86
  -1   3   0 1989.40   92.95
   1   3   0 1930.54   94.99
  -1   3   0 2098.13   93.14
   1   3   1    5.30    1.87
   1   3   1   11.64    2.88
   1   3   2 1211.94   58.14
   1   3   3  258.89   14.15
  -1   3  -4 1302.48   63.92
   1   3   4 1264.69   60.88
  -1   3  -4 1309.03   66.47
  -1  -3  -4 1282.98   65.97
   1   3   5   19.57    4.45
  -1  -3  -5   13.22    2.82
  -1  -3  -5   26.55    3.17
  -1   3  -5   16.77    2.59
   1   3   5   19.87    2.95
  -1   3  -5   17.13    5.50
  -1  -3  -5   20.75    5.88
  -1  -3  -5   24.90    3.22
  -1   3  -5   18.86    3.05
   1   3   6  133.42   12.25
  -1   3  -6  133.72    9.58
  -1  -3  -6  154.37    9.84
  -1   3  -6  143.60    9.20
  -1  -3  -6  162.25   15.83
  -1   3  -6  125.09   14.66
  -1   3  -6  143.20    9.28
  -1   3  -7    0.52    1.98
  -1   3  -7    2.40    3.84
  -1  -3  -7    2.29    4.11
  -1  -3  -7   -1.26    2.53
  -1   3  -7    0.67    2.33
  -1   3  -7    0.48    1.96
  -1   3  -8  825.87   42.28
  -1  -3  -8  885.31   41.64
  -1  -3  -8  827.51   43.58
  -1   3  -8  923.37   57.09
  -1   3  -8  779.78   43.53
  -1  -3  -8  939.14   56.62
  -1   3  -8  858.39   42.26
  -1  -3  -9   -3.15    6.18
  -1   3  -9    6.43    3.01
  -1   3  -9    3.31    6.50
  -1   3  -9   11.50    3.62
  -1  -3  -9    2.72    3.78
  -1   3  -9    4.81    4.29
  -1  -3  -9    5.45    2.70
  -1   3 -10  268.63   16.21
  -1  -3 -10  258.37   16.13
  -1  -3 -10  258.78   14.97
  -1  -3 -10  234.60   17.33
  -1   3 -10  243.64   27.82
  -1   3 -10  285.18   18.53
  -1  -3 -10  219.92   26.53
  -1   3 -10  258.21   14.71
  -1   3 -11   -0.65    3.20
  -1  -3 -11    0.63    3.40
  -1  -3 -11    3.51    2.48
  -1   3 -11    2.02    2.05
  -1   3 -11    1.00    3.57
  -1  -3 -11   -0.92    3.63
  -1   3 -12 1087.17   52.75
  -1  -3 -12 1188.30   53.67
  -1   3 -12 1076.34   54.40
  -1  -3 -12 1042.39   53.94
  -1   3 -13   -0.26    0.56
  -1  -3 -13    0.73    1.83
  -1  -3 -13    2.57    1.99
  -1   3 -13    1.36    1.99
   1  -4 -14    0.82    0.99
   1  -4 -13   97.79    6.92
   1   4 -13   97.54    7.48
   1  -4 -13  102.53    7.44
   1   4 -13   79.52    6.08
   1  -4 -12    2.28    2.77
   1   4 -12    2.16    1.77
   1  -4 -12    2.33    2.45
   1   4 -12   -0.72    3.01
   1  -4 -12   -0.68    3.03
   1   4 -12    6.78    2.66
   1   4 -11   99.59    7.76
   1  -4 -11   93.22    7.98
   1   4 -11   97.62    7.67
   1   4 -11   87.75    8.11
   1  -4 -11   93.85    8.20
   1  -4 -11   94.95    7.76
   1   4 -11  102.27    9.25
   1  -4 -11   97.41    8.88
   1   4 -10   29.62    4.23
   1   4 -10   25.56    4.55
   1  -4 -10   31.84   11.48
   1   4 -10   30.38   10.89
   1  -4 -10   33.66    4.72
   1   4 -10   36.88    4.57
   1  -4 -10   26.96    4.49
   1  -4  -9 1707.36   85.29
   1   4  -9 1710.24   85.73
   1  -4  -9 1803.81   83.78
   1   4  -9 1773.79   84.94
   1   4  -9 1771.03   83.98
   1   4  -9 1839.04  100.47
   1  -4  -9 1780.55   98.55
   1  -4  -9 1753.77   83.58
   1   4  -8    4.55    2.70
   1  -4  -8    1.00    1.80
   1   4  -8    5.30    3.74
   1  -4  -8    3.48    2.95
   1  -4  -8    5.18    2.35
   1  -4  -8   -2.35    5.32
   1   4  -8    5.05    5.34
   1   4  -8    3.45    2.05
   1   4  -8    3.31    2.54
   1   4  -7  458.10   24.70
   1   4  -7  441.53   33.03
   1   4  -7  483.99   25.80
   1  -4  -7  469.10   32.65
   1  -4  -7  488.01   25.49
   1   4  -7  471.99   24.32
   1  -4  -7  506.54   25.55
   1   4  -7  502.26   25.48
   1   4  -7  466.09   24.45
   1  -4  -6   32.39    3.73
   1   4  -6   28.33    3.69
   1   4  -6   32.35    3.53
   1  -4  -6   28.12    6.29
   1   4  -6   27.31    3.17
   1   4  -6   23.71    6.34
   1   4  -5   13.20    4.34
   1  -4  -5   15.97    4.69
   1  -4  -5   13.51    2.37
   1   4  -5   13.36    2.39
   1  -4  -4  196.70   14.45
   1   4  -4  217.09   15.05
   1  -4  -4  217.13   14.31
   1   4  -3  226.71   14.09
   1  -4  -3  257.39   14.44
  -1   4   3  211.08   11.11
   1  -4  -3  252.96   14.12
   1  -4  -2   18.53    2.69
   1   4  -2   12.97    2.35
   1  -4  -1  943.69   42.13
   1   4  -1  880.88   41.99
   1  -4  -1  876.56   42.33
   1   4  -1  835.18   42.23
  -1   4   1  907.97   41.66
  -1   4   0   21.00    2.72
  -1   4   0   32.83    3.28
  -1   4  -1    7.65    2.24
   1   4   1    6.09    2.02
  -1   4  -2    1.16    0.88
   1   4   2    0.99    1.78
   1   4   3 1749.02   83.39
  -1   4  -4   69.25    7.72
  -1   4  -4   74.88    8.84
  -1  -4  -4   77.79    9.04
  -1  -4  -5    2.30    1.28
   1   4   5   -1.21    2.74
  -1  -4  -5    1.45    3.66
  -1   4  -5    4.63    3.71
  -1  -4  -5    3.88    1.81
  -1   4  -5    0.84    1.78
  -1   4  -5    5.42    1.89
   1   4   6    9.36    3.86
  -1   4  -6    5.85    2.23
  -1   4  -6    3.22    2.16
  -1  -4  -6    2.00    2.04
  -1   4  -6    5.82    5.60
  -1  -4  -6    3.65    4.63
  -1   4  -7    0.99    1.98
  -1  -4  -7    2.25    3.60
  -1   4  -7    3.16    2.38
  -1   4  -7    2.38    4.26
  -1  -4  -7    1.87    2.44
  -1   4  -7    2.67    2.33
  -1   4  -8    8.95    3.22
  -1  -4  -8   21.59    7.52
  -1   4  -8    8.58    6.51
  -1   4  -8   18.38    3.55
   1   4   8   21.78    5.38
  -1  -4  -8   21.44    3.41
  -1  -4  -8   17.52    4.07
  -1   4  -8   17.95    4.30
  -1   4  -9   35.38    4.91
  -1   4  -9   45.73   11.48
  -1   4  -9   27.04    4.60
  -1   4  -9   29.47    3.85
  -1  -4  -9   30.60    4.33
  -1   4  -9   33.22    5.76
  -1  -4  -9   33.55    5.87
  -1   4 -10   -0.45    2.20
  -1   4 -10   -3.45    6.17
  -1  -4 -10    6.44    7.29
  -1   4 -10    3.39    3.51
  -1  -4 -10   -1.00    2.68
  -1   4 -10    1.02    3.90
  -1  -4 -10    1.88    3.76
  -1  -4 -11  119.95    8.88
  -1  -4 -11  107.96    7.38
  -1  -4 -11   76.63    8.75
  -1   4 -11  107.89    9.98
  -1   4 -11   90.58    6.85
  -1  -4 -12    9.56    3.19
  -1   4 -12    6.47    3.13
  -1   4 -12   11.24    2.69
  -1  -4 -12    4.05    2.89
  -1  -4 -13   49.73    4.14
  -1   4 -13   45.93    4.12
  -1  -4 -13   53.95    4.11
   1  -5 -13    0.41    2.00
   1   5 -13    0.89    1.48
   1   5 -13    0.96    2.11
   1  -5 -13    0.45    2.02
   1   5 -12  505.14   27.24
   1  -5 -12  580.65   28.53
   1  -5 -12  545.88   27.67
   1   5 -12  549.48   27.55
   1   5 -12  519.35   28.89
   1  -5 -12  556.30   28.87
   1   5 -11   13.30    3.19
   1  -5 -11   12.17    3.30
   1   5 -11   14.16    3.41
   1  -5 -11   10.69    3.11
   1   5 -11   13.61    3.89
   1  -5 -11   12.75    3.39
   1  -5 -10  470.90   26.15
   1   5 -10  482.32   25.87
   1  -5 -10  454.48   38.54
   1   5 -10  444.90   39.23
   1   5 -10  512.88   26.95
   1   5 -10  481.67   26.12
   1  -5 -10  515.21   26.44
   1   5 -10  473.68   27.50
   1  -5 -10  522.80   27.63
   1   5  -9   -1.79    3.51
   1  -5  -9    1.63    3.19
   1   5  -9   -1.56    3.43
   1  -5  -9    0.57    2.56
   1  -5  -9   -2.75    5.83
   1   5  -9   -5.96    6.31
   1   5  -9   -3.19    3.02
   1  -5  -9    0.58    2.81
   1   5  -9    2.10    2.72
   1   5  -9   -0.56    2.33
   1  -5  -8  780.61   39.43
   1  -5  -8  792.29   40.83
   1   5  -8  844.20   41.06
   1   5  -8  793.23   39.96
   1   5  -8  801.01   41.27
   1  -5  -8  789.12   40.76
   1  -5  -8  860.98   51.43
   1   5  -8  784.84   39.48
   1   5  -8  822.02   51.94
   1   5  -7   10.90    2.58
   1   5  -7    8.59    2.74
   1   5  -7    9.15    2.88
   1  -5  -7   12.62    2.81
   1   5  -7    6.29    2.54
   1  -5  -7   11.86    3.16
   1   5  -7   14.18    5.63
   1  -5  -7    9.26    5.36
   1   5  -7    7.82    2.10
   1   5  -6 2007.48   94.74
   1   5  -6 2027.02  103.25
   1  -5  -6 2060.88   95.30
   1  -5  -6 2252.02  103.42
   1   5  -6 2044.98   95.57
   1   5  -6 2015.19   95.01
   1  -5  -5   16.92    4.76
   1   5  -5   22.78    5.04
   1   5  -5   29.47    3.28
   1  -5  -5   27.82    3.07
   1   5  -5   25.68    3.04
  -1   5   5   29.21    3.21
  -1   5   4   44.28    3.41
   1  -5  -4   48.33    6.03
   1  -5  -4   46.59    5.93
   1   5  -4   37.93    5.60
   1  -5  -3   14.47    3.15
   1  -5  -3   20.64    3.51
   1   5  -3   25.02    3.71
   1  -5  -2  609.27   29.47
   1   5  -2  567.03   29.35
  -1   5   1   61.19    5.40
   1   5  -1   66.53    6.88
   1   5  -1   54.95    4.00
   1  -5  -1   49.03    3.90
  -1   5   0  241.61   14.14
  -1   5   0  244.88   13.58
  -1   5  -1    6.63    2.18
   1   5   2 3384.88  160.41
  -1   5  -2 3475.82  159.21
  -1   5  -2 3568.31  161.44
  -1   5  -3  232.55   15.63
  -1  -5  -3  230.83   15.21
   1   5   3  214.94   14.05
  -1   5  -4 3223.05  157.37
  -1  -5  -4 3340.93  157.01
   1   5   4 3328.97  154.75
  -1   5  -5   16.12    2.69
   1   5   5   10.57    3.48
   1   5   5   13.94    4.76
  -1  -5  -5   11.14    1.97
  -1  -5  -5    4.24    3.61
  -1   5  -5    9.18    4.44
  -1  -5  -5   13.07    4.82
  -1  -5  -5   13.03    2.65
  -1   5  -5    8.39    2.36
   1   5   6  406.30   28.01
   1   5   6  481.28   27.05
  -1   5  -6  436.92   22.85
  -1  -5  -6  423.59   22.48
  -1   5  -6  406.23   29.91
  -1  -5  -6  421.98   29.72
  -1   5  -6  397.68   22.21
  -1   5  -7    2.36    4.23
  -1  -5  -7   -2.21    3.53
  -1   5  -7    1.62    2.33
   1   5   7    1.65    3.23
  -1   5  -7   -2.18    2.13
  -1   5  -7    1.33    2.44
  -1  -5  -7    1.84    2.45
  -1   5  -7   -0.51    2.00
  -1   5  -7   -0.35    1.48
   1   5   7    6.47    3.27
  -1   5  -8  122.75   10.48
  -1  -5  -8  141.74   10.79
  -1   5  -8  130.12    9.70
  -1   5  -8  150.04    9.01
  -1   5  -8  130.08   17.61
  -1  -5  -8  134.93   17.28
  -1   5  -8  140.48    9.97
  -1   5  -9    5.69    2.55
  -1   5  -9    9.14    3.48
  -1  -5  -9   12.52    3.20
  -1   5  -9    6.40    5.74
  -1   5  -9   11.63    3.17
  -1  -5  -9    5.98    5.87
  -1   5  -9   16.88    4.70
  -1  -5  -9    0.87    3.35
  -1   5 -10 1230.47   59.57
  -1   5 -10 1203.07   63.17
  -1  -5 -10 1223.41   62.76
  -1  -5 -10 1260.51   76.56
  -1   5 -10 1177.12   76.73
  -1  -5 -10 1291.11   60.18
  -1   5 -10 1304.46   61.32
  -1   5 -11    0.92    3.45
  -1  -5 -11    0.83    3.06
  -1  -5 -11    1.22    2.92
  -1   5 -11   -0.37    1.94
  -1  -5 -11   -0.43    2.20
  -1   5 -12   74.09    6.10
  -1  -5 -12   86.14    6.77
  -1   5 -12   72.32    6.89
  -1  -5 -12   67.19    6.45
  -1  -5 -13    3.32    1.97
  -1   5 -13    2.07    1.36
   1   6 -13  222.53   12.40
   1  -6 -13  238.85   13.24
   1  -6 -13  235.21   13.27
   1   6 -13  242.68   13.56
   1   6 -12    2.49    2.59
   1  -6 -12    4.66    2.64
   1   6 -12    3.53    2.06
   1  -6 -12    1.08    2.73
   1   6 -12    4.20    2.78
   1  -6 -12    3.57    2.63
   1  -6 -11  929.58   45.44
   1   6 -11  855.04   45.44
   1   6 -11  885.63   44.32
   1   6 -11  884.21   44.02
   1  -6 -11  920.56   44.41
   1   6 -10   -1.09    2.70
   1  -6 -10    0.58    2.31
   1   6 -10    6.11    2.85
   1  -6 -10   -1.46    3.42
   1   6 -10    3.16    3.10
   1   6 -10    3.19    5.72
   1  -6 -10   -2.95    5.78
   1  -6 -10    1.20    2.89
   1   6  -9  437.95   22.79
   1   6  -9  430.62   23.07
   1   6  -9  413.92   23.30
   1  -6  -9  437.37   23.27
   1   6  -9  438.37   22.91
   1  -6  -9  423.03   34.03
   1   6  -9  378.65   34.13
   1  -6  -9  380.65   22.41
   1  -6  -8   24.89    3.61
   1   6  -8   20.80    4.41
   1   6  -8   26.38    3.65
   1   6  -8   26.93    4.13
   1   6  -8   21.86    4.37
   1  -6  -8   25.40    4.33
   1  -6  -8   20.32    6.36
   1   6  -8   26.10    3.77
   1   6  -8   24.99    8.32
   1  -6  -8   30.36    4.79
   1  -6  -7 3443.51  153.42
   1   6  -7 3331.39  152.16
   1   6  -7 3408.74  152.58
   1   6  -7 3158.72  152.49
   1  -6  -7 3249.93  152.97
   1   6  -7 3397.13  163.81
   1   6  -7 3238.61  153.40
   1  -6  -7 3328.95  162.13
   1   6  -7 3276.43  152.24
   1   6  -6   -0.41    1.66
   1   6  -6    0.96    1.96
   1  -6  -6   -0.86    1.65
   1  -6  -6   -1.44    3.06
   1   6  -6    1.53    1.36
   1   6  -6    1.58    3.58
   1   6  -5 1209.39   57.40
   1  -6  -5 1341.20   63.10
   1  -6  -5 1254.79   63.02
   1   6  -5 1204.85   57.49
   1   6  -5 1285.05   63.66
   1  -6  -5 1174.88   57.21
   1  -6  -4    8.43    2.71
   1   6  -4    1.77    2.36
   1  -6  -4    8.74    3.51
   1   6  -3  919.07   45.90
   1  -6  -3  905.34   45.68
   1  -6  -3  937.34   46.45
   1   6  -2    0.80    1.11
   1  -6  -2    0.80    1.29
   1   6  -1   90.79    9.25
  -1   6   1  103.08    8.15
   1   6   0    5.50    1.24
   1  -6   0    4.10    1.16
  -1   6   0    4.81    2.37
  -1   6  -1 4080.06  190.26
   1   6   1 3972.82  191.73
   1   6   1 4439.41  194.57
  -1   6  -2   15.35    3.53
  -1   6  -2   15.72    3.03
  -1   6  -3 2320.03  113.69
  -1  -6  -3 2429.94  113.38
   1   6   3 2399.06  112.49
  -1  -6  -4   15.08    4.92
   1   6   4    5.56    2.23
  -1   6  -4    4.67    3.25
  -1  -6  -4    9.51    3.60
   1   6   5 2267.11  109.00
  -1  -6  -5 2295.37  107.92
  -1   6  -5 2054.05  100.39
  -1  -6  -5 2203.83  107.40
  -1   6  -5 2233.10  108.31
  -1   6  -5 2145.73  100.36
   1   6   5 2221.39  104.33
  -1  -6  -5 2144.74  100.04
  -1   6  -6    3.22    2.24
  -1  -6  -6    1.45    1.90
  -1   6  -6    2.04    2.23
   1   6   6   -1.74    3.12
  -1  -6  -6    1.75    4.20
  -1   6  -6    3.82    4.04
  -1   6  -6    1.83    1.79
  -1  -6  -6    1.63    3.91
   1   6   6    1.13    2.39
   1   6   7   73.53   11.04
  -1   6  -7   75.15   11.97
  -1   6  -7   82.66    6.89
  -1  -6  -7   88.91   12.77
  -1   6  -7   72.30    6.48
  -1   6  -7   82.25    5.85
  -1   6  -7   77.30    6.76
  -1  -6  -7   78.48    6.96
  -1   6  -7   79.81    7.32
  -1   6  -8    5.69    1.99
  -1   6  -8    2.43    2.58
  -1   6  -8    4.85    3.18
  -1  -6  -8    4.43    3.40
  -1   6  -8   11.15    6.70
  -1   6  -8    3.74    2.74
  -1  -6  -8   -2.59    5.86
  -1   6  -9  803.91   39.84
  -1  -6  -9  825.43   40.60
  -1   6  -9  801.26   42.97
  -1  -6  -9  813.75   54.50
  -1  -6  -9  834.48   42.79
  -1   6  -9  769.36   54.83
  -1   6  -9  827.62   41.41
  -1   6 -10    1.29    2.78
  -1   6 -10    3.81    3.89
  -1  -6 -10    1.74    4.00
  -1  -6 -10   -2.98    5.32
  -1   6 -10    3.21    6.80
  -1   6 -10    0.43    2.10
  -1  -6 -10    3.04    2.60
  -1  -6 -11 1115.23   52.40
  -1   6 -11 1086.50   52.11
  -1   6 -11 1010.04   50.34
  -1  -6 -11 1073.90   50.98
  -1  -6 -12    1.00    2.16
  -1   6 -12    3.76    2.32
  -1  -6 -12    5.18    1.94
  -1   6 -12    4.41    2.32
  -1  -6 -12    3.75    2.55
  -1  -6 -13  807.40   36.62
  -1   6 -13  725.09   35.93
   1  -7 -13   17.33    2.91
   1   7 -12  320.42   17.62
   1  -7 -12  311.09   17.59
   1   7 -12  348.03   18.72
   1  -7 -12  328.07   18.26
   1  -7 -12  299.88   18.02
   1   7 -12  350.75   17.68
   1  -7 -11    2.18    3.05
   1   7 -11    3.00    2.65
   1  -7 -11    0.65    2.50
   1   7 -11    1.41    2.39
   1   7 -11    0.58    2.53
   1  -7 -10  181.76   12.38
   1   7 -10  177.31   12.57
   1   7 -10  165.69   11.28
   1  -7 -10  200.80   12.22
   1   7 -10  194.82   12.20
   1   7 -10  119.60   18.58
   1  -7 -10  134.91   18.72
   1   7 -10  165.98   11.31
   1  -7  -9    3.25    2.65
   1   7  -9    2.88    2.88
   1   7  -9    3.06    2.69
   1   7  -9   -0.56    2.29
   1   7  -9   -2.88    6.91
   1  -7  -9  -10.40    6.90
   1   7  -9   -1.08    2.59
   1   7  -8  349.68   19.96
   1   7  -8  398.31   20.67
   1   7  -8  387.38   21.78
   1   7  -8  355.09   20.14
   1   7  -8  376.07   30.29
   1  -7  -8  343.14   28.49
   1  -7  -8  378.95   21.62
   1  -7  -7   12.17    3.36
   1   7  -7   11.67    2.76
   1   7  -7    7.90    2.33
   1   7  -7    2.44    2.27
   1  -7  -7    8.59    2.81
   1   7  -7   11.23    2.88
   1   7  -7    4.02    5.10
   1  -7  -7    9.03    4.58
   1   7  -7    7.40    2.34
   1   7  -6  179.43   11.23
   1  -7  -6  203.14   11.44
   1   7  -6  173.61   10.29
   1   7  -6  179.06   10.72
   1  -7  -6  188.00   15.84
   1   7  -6  171.44   15.90
   1  -7  -6  158.91   10.33
   1   7  -6  145.73   10.41
   1   7  -6  168.48   10.23
   1  -7  -5   53.57    7.31
   1   7  -5   40.61    6.83
   1   7  -5   59.35    4.73
   1  -7  -5   49.49    4.36
   1  -7  -5   53.75    7.47
   1  -7  -4 1034.14   50.57
   1  -7  -4  952.67   49.25
   1   7  -4  919.94   49.34
   1   7  -3    0.62    1.49
   1  -7  -3   -0.60    1.59
   1  -7  -2   62.73    4.92
   1   7  -2   49.49    4.53
   1   7  -1    1.18    3.14
  -1   7   1    0.76    1.84
   1   7   0   32.12    6.38
  -1   7   0   42.93    5.42
   1   7   0   50.10    6.40
  -1  -7  -1   57.60    4.31
   1   7   1   59.62    7.14
  -1   7  -2  575.95   31.28
  -1  -7  -2  609.57   31.10
  -1   7  -2  675.07   33.02
  -1   7  -3  151.84   11.54
  -1  -7  -3  151.73   11.20
  -1  -7  -4  149.34   12.98
   1   7   4  122.65   10.30
  -1  -7  -4  130.80   11.31
  -1   7  -4  135.32   11.87
  -1   7  -5   13.04    2.64
  -1  -7  -5   15.55    2.53
  -1   7  -5   16.93    2.94
  -1   7  -5   19.37    5.37
  -1  -7  -5    6.71    3.46
  -1  -7  -5   16.17    5.80
   1   7   5   17.07    4.07
   1   7   5   14.18    5.35
   1   7   6  323.90   24.99
  -1   7  -6  287.63   17.31
  -1  -7  -6  334.03   24.16
  -1   7  -6  283.43   23.64
  -1   7  -6  291.18   17.22
  -1  -7  -6  304.71   17.02
   1   7   6  325.49   20.72
  -1   7  -7    2.22    1.83
   1   7   7    2.11    3.78
  -1   7  -7    1.21    2.31
  -1  -7  -7    2.13    5.11
  -1   7  -7    2.33    3.73
  -1  -7  -7   -1.21    2.16
  -1   7  -7    0.67    2.21
  -1   7  -8  277.43   15.11
  -1   7  -8  263.08   16.30
  -1  -7  -8  329.10   27.07
  -1   7  -8  244.55   25.08
  -1  -7  -8  268.84   16.93
  -1   7  -8  268.65   17.35
  -1   7  -9    5.64    2.29
  -1   7  -9    5.41    3.76
  -1  -7  -9    4.09    3.21
  -1  -7  -9    6.52    3.12
  -1  -7  -9   14.04    6.75
  -1   7  -9    9.10    5.44
  -1   7  -9    3.97    3.05
  -1   7 -10  146.57   10.65
  -1   7 -10  133.90    8.99
  -1  -7 -10  169.83   10.17
  -1  -7 -10  127.19   17.66
  -1   7 -10  140.10   10.26
  -1   7 -10  131.24   18.57
  -1   7 -10  125.35   11.24
  -1  -7 -10  138.37   11.28
  -1  -7 -11    1.22    2.76
  -1   7 -11    0.66    2.47
  -1  -7 -11    1.68    2.33
  -1   7 -11    0.58    2.80
  -1  -7 -12   30.22    3.88
  -1   7 -12   35.09    4.14
  -1  -7 -12   36.10    4.33
  -1   7 -12   36.07    4.09
  -1  -7 -12   32.60    3.37
  -1   7 -13    1.61    1.19
  -1  -7 -13   -0.28    1.58
   1  -8 -13  107.45    7.05
   1  -8 -12    0.46    2.13
   1   8 -12    1.94    2.17
   1   8 -12    0.43    1.95
   1  -8 -12   -0.99    2.50
   1   8 -12    1.90    2.08
   1  -8 -12    1.24    2.34
   1  -8 -11  932.94   46.41
   1   8 -11  927.48   46.73
   1   8 -11  982.67   45.92
   1   8 -11  937.37   46.32
   1  -8 -11  901.05   45.99
   1   8 -10   -0.65    3.02
   1   8 -10    1.08    2.52
   1   8 -10    0.57    2.17
   1   8 -10   -2.90    4.64
   1  -8 -10   -2.65    4.74
   1  -8 -10    1.23    3.07
   1  -8 -10    4.52    2.78
   1   8 -10    6.36    2.71
   1   8  -9  226.76   13.52
   1   8  -9  155.29   20.04
   1  -8  -9  187.66   20.84
   1   8  -9  213.25   12.80
   1  -8  -9  199.69   13.02
   1   8  -9  172.96   12.90
   1   8  -9  206.81   12.72
   1   8  -8   10.27    2.79
   1   8  -8    3.64    2.64
   1  -8  -8    2.72    2.23
   1   8  -8    6.09    2.40
   1   8  -8    5.75    2.84
   1   8  -8    2.42    5.13
   1  -8  -8    2.17    4.91
   1   8  -8    2.69    2.44
   1  -8  -8    0.74    3.14
   1   8  -7 3766.85  172.49
   1   8  -7 3684.89  172.93
   1   8  -7 3725.38  172.61
   1   8  -7 3841.55  172.69
   1   8  -7 3719.91  182.95
   1  -8  -7 3767.22  181.87
   1  -8  -7 3708.03  173.64
   1  -8  -6   32.00    4.24
   1   8  -6   34.16    3.72
   1   8  -6   37.12    4.24
   1   8  -6   41.85    7.38
   1  -8  -6   38.58    7.11
   1   8  -6   29.05    3.60
   1  -8  -6   32.79    3.77
   1   8  -6   28.15    3.74
   1   8  -5 1294.14   71.50
   1  -8  -5 1417.47   71.77
   1  -8  -4   67.88    7.16
   1   8  -4   66.67    4.99
   1  -8  -4   84.76    8.61
   1   8  -3  718.14   25.50
   1  -8  -3  743.33   28.10
   1   8  -3  707.03   27.97
  -1   8   2   13.12    3.72
   1   8  -2    7.78    1.71
   1  -8  -2    9.49    1.85
  -1   8   1 2037.42   96.40
   1   8  -1 1920.37   99.15
  -1   8   0    6.90    2.61
   1   8   0   10.42    3.65
   1   8   0    7.18    4.31
   1   8   1 1329.68   56.09
  -1  -8  -1 1138.12   48.08
  -1  -8  -2    2.68    1.60
  -1   8  -2    0.47    1.19
  -1   8  -2    1.81    1.41
  -1   8  -2    0.90    2.16
   1   8   2    4.70    4.53
   1   8   3 3152.52  144.18
  -1  -8  -3 2837.57  136.31
  -1   8  -3 2896.88  136.80
  -1   8  -4   -1.09    2.46
  -1  -8  -4   -1.97    2.84
  -1  -8  -4   -1.34    3.21
  -1  -8  -5 1952.96   95.70
  -1   8  -5 1930.35   96.68
  -1   8  -5 1818.24   89.29
  -1  -8  -5 1962.44   89.10
  -1  -8  -5 1986.49   97.84
   1   8   5 2000.56  100.61
  -1   8  -6    4.67    2.48
  -1  -8  -6    8.74    2.56
  -1   8  -6    4.07    1.71
  -1   8  -6    4.33    2.26
  -1  -8  -6    3.32    1.98
  -1   8  -6    3.72    3.34
  -1  -8  -6    6.72    4.25
   1   8   6    2.17    4.92
  -1  -8  -6    1.80    3.81
  -1  -8  -7  601.52   39.72
  -1   8  -7  543.58   31.23
  -1  -8  -7  627.40   31.29
  -1   8  -7  616.58   41.12
   1   8   7  588.37   40.88
  -1   8  -7  656.04   31.91
  -1   8  -7  583.35   29.64
  -1   8  -8   19.16    4.38
  -1  -8  -8   19.27    4.33
  -1   8  -8   20.51    3.18
  -1  -8  -8   27.03    8.39
  -1   8  -8   17.73    3.71
  -1   8  -8   24.14    7.79
  -1   8  -8   19.67    4.23
  -1   8  -9  969.70   47.59
  -1   8  -9  930.38   45.82
  -1   8  -9  939.98   48.79
  -1  -8  -9 1024.75   60.70
  -1  -8  -9  976.80   48.46
  -1   8  -9  850.67   59.48
  -1   8 -10    4.65    3.15
  -1   8 -10    4.42    2.07
  -1  -8 -10    7.11    3.19
  -1  -8 -10   11.50    3.84
  -1   8 -10    2.55    3.61
  -1   8 -10   10.64    3.10
  -1   8 -11  871.37   42.39
  -1  -8 -11  833.86   42.07
  -1   8 -11  831.25   42.26
  -1  -8 -11  855.03   41.18
  -1  -8 -12   -0.42    2.06
  -1   8 -12   -0.82    1.83
  -1   8 -12    0.77    1.24
  -1  -8 -12    2.58    1.93
  -1  -8 -12   -0.82    1.47
  -1   8 -13  479.96   24.76
  -1  -8 -13  576.45   25.39
   1  -9 -13    1.19    1.66
   1   9 -12   19.96    3.14
   1  -9 -12   17.65    3.57
   1  -9 -12   19.48    3.20
   1   9 -11   33.17    4.35
   1   9 -11   30.25    4.51
   1  -9 -11   32.55    4.33
   1   9 -11   25.22    4.25
   1   9 -10   16.36    3.49
   1   9 -10   11.65    3.41
   1  -9 -10   11.88    3.28
   1  -9 -10   14.08    3.93
   1   9 -10   13.87    3.69
   1   9 -10   11.21    3.39
   1   9  -9    8.85    2.89
   1   9  -9    8.35    2.98
   1  -9  -9    7.59    2.55
   1   9  -9   18.30    7.26
   1   9  -9    8.89    2.62
   1   9  -9    7.30    2.98
   1  -9  -8  111.17    9.40
   1   9  -8  106.61    8.19
   1   9  -8  124.86    8.83
   1  -9  -8  113.12    8.31
   1   9  -8   95.60    8.14
   1   9  -8  104.16   14.48
   1  -9  -8  119.70   14.52
   1   9  -8  115.10    8.38
   1   9  -8  103.19    8.49
   1  -9  -7    0.65    2.39
   1   9  -7    0.49    2.12
   1   9  -7   -1.12    2.06
   1  -9  -7   -2.21    1.77
   1   9  -7   -0.48    1.77
   1   9  -7    2.04    2.20
   1  -9  -7    1.76    3.15
   1   9  -7   -1.91    3.74
   1   9  -7    0.53    2.06
   1  -9  -6  155.67   10.45
   1   9  -6  156.25    9.72
   1   9  -6  150.93   10.08
   1  -9  -6  142.05   13.94
   1   9  -6  141.14   14.04
   1   9  -6  138.44    9.21
   1  -9  -6  166.18    9.42
   1   9  -6  154.19    9.77
   1  -9  -5   36.90    6.67
   1  -9  -5   36.59    6.07
   1   9  -5   35.28    5.81
   1   9  -5   30.39    3.45
   1  -9  -4   32.01    5.81
   1   9  -4   25.82    3.16
   1   9  -4   18.92    3.76
   1  -9  -4   22.20    3.98
   1   9  -3    1.43    1.66
   1   9  -3    1.05    1.19
   1  -9  -3    0.55    1.40
  -1   9   2 1749.19   79.98
   1   9  -2 1532.55   73.45
   1   9  -1   12.84    4.81
  -1   9   1    7.37    3.27
   1   9  -1    5.39    1.52
   1   9   0   14.88    5.65
   1   9   0   13.90    2.04
  -1   9   0   12.23    2.03
  -1   9   0   19.14    4.53
   1   9   0   18.01    4.94
  -1   9  -1   22.22    2.74
   1   9   1   19.66    2.56
   1   9   1   25.19    5.51
  -1   9  -2 1062.43   55.76
   1   9   2 1272.37   61.99
  -1   9  -2 1114.98   50.75
   1   9   2 1095.65   50.47
  -1  -9  -2 1069.72   50.79
  -1   9  -2  946.97   50.39
   1   9   2 1187.32   58.40
  -1  -9  -3  110.71    8.73
  -1   9  -3  104.75    8.61
   1   9   3  126.88   13.95
  -1  -9  -4   66.86    7.45
   1   9   4   65.04   11.15
  -1   9  -4   56.70    7.25
  -1   9  -5   11.48    2.32
  -1   9  -5   15.27    4.34
  -1  -9  -5   12.68    4.34
  -1  -9  -5   16.71    5.54
   1   9   5   13.26    6.40
  -1  -9  -6  195.02   11.80
  -1   9  -6  180.59   10.43
   1   9   6  160.94   18.94
  -1   9  -6  174.70   11.90
  -1  -9  -6  192.41   17.72
  -1  -9  -6  173.09   16.37
  -1   9  -6  165.77   11.22
  -1  -9  -6  165.96   10.86
  -1   9  -6  183.59   17.31
   1   9   7    2.55    5.00
  -1   9  -7   -0.66    2.19
  -1  -9  -7   -1.75    2.52
  -1   9  -7    4.05    3.01
  -1  -9  -7   -2.02    3.96
  -1   9  -7   -4.44    5.02
  -1   9  -7    0.80    1.86
  -1  -9  -8  615.16   32.07
  -1  -9  -8  555.91   40.72
  -1   9  -8  577.70   32.37
  -1   9  -8  578.64   42.27
  -1   9  -8  606.78   30.31
  -1   9  -8  641.44   32.36
  -1   9  -8  607.16   31.94
  -1   9  -9    1.29    2.20
  -1   9  -9    0.70    3.00
  -1   9  -9    2.74    3.79
  -1   9  -9    2.01    2.68
  -1   9  -9    0.82    3.15
  -1  -9  -9    1.47    3.28
  -1   9 -10 1198.11   56.88
  -1   9 -10 1050.32   56.06
  -1  -9 -10 1221.65   56.40
  -1  -9 -10 1134.50   55.54
  -1   9 -10 1174.91   56.39
  -1   9 -11    0.46    2.01
  -1   9 -11    1.65    2.68
  -1  -9 -11    1.96    2.22
  -1  -9 -11    1.85    2.06
  -1   9 -11   -0.49    1.92
  -1   9 -12  135.47    8.49
  -1  -9 -12  123.30    7.55
  -1  -9 -12  140.99    8.68
  -1  -9 -13    0.66    1.24
   1 -10 -13  196.19   10.64
   1 -10 -12    1.80    1.89
   1 -10 -12   -0.43    2.33
   1  10 -12    0.76    1.86
   1  10 -11   33.89    4.33
   1 -10 -11   27.37    3.92
   1  10 -10   17.27    3.66
   1  10 -10   10.15    2.97
   1  10 -10    7.86    3.21
   1  10 -10   11.92    3.43
   1 -10 -10   10.86    3.55
   1  10  -9  223.28   14.30
   1  10  -9  231.44   14.58
   1  10  -9  227.25   13.70
   1 -10  -9  235.77   13.75
   1  10  -9  190.68   13.39
   1  10  -9  242.27   14.05
   1  10  -8   34.39    4.73
   1  10  -8   43.71    5.00
   1  10  -8   28.54    4.07
   1  10  -8   25.48    4.50
   1  10  -8   44.92    8.88
   1  10  -8   45.09    4.80
   1 -10  -8   43.13    5.81
   1 -10  -7  197.94   12.77
   1  10  -7  177.35   11.48
   1  10  -7  199.89   12.37
   1  10  -7  184.63   11.89
   1  10  -7  174.02   11.54
   1  10  -7  191.96   11.27
   1  10  -6   81.73    6.43
   1 -10  -6   71.39    6.77
   1  10  -6   85.80    6.51
   1  10  -6   54.60    8.49
   1 -10  -6   84.45    9.95
   1  10  -6   72.85    6.49
   1  10  -5  609.28   36.62
   1 -10  -5  724.59   40.02
   1  10  -5  682.67   33.06
   1 -10  -5  664.52   33.73
   1  10  -4  106.80    7.39
   1  10  -4   87.17    8.21
   1 -10  -4  114.16   11.15
   1  10  -3   58.94    4.96
  -1  10   3   57.04    8.76
  -1  10   2   25.15    5.52
  -1  10   1 1704.84   79.53
   1  10  -1 1811.11   84.49
   1  10   0    2.35    1.59
  -1  10   0    4.30    1.66
   1  10   0    1.37    2.91
   1  10   0    1.89    4.53
  -1  10  -1   48.85    4.25
   1  10   1   49.51    4.14
   1  10   1   48.83    7.68
  -1  10  -2    2.33    1.73
   1  10   2    1.06    1.33
   1  10   2    3.11    3.52
  -1  10  -2    1.27    2.70
   1  10   2    2.02    5.37
   1  10   3  287.61   21.60
   1  10   3  296.22   23.66
   1  10   3  261.97   13.61
   1  10   4   22.80    7.83
  -1  10  -4   29.76    3.47
  -1  10  -4   17.16    3.94
   1  10   4   30.00    3.26
   1  10   5   28.35    3.46
  -1 -10  -5   33.26    3.91
  -1  10  -5   28.90    3.74
  -1  10  -5   28.75    3.29
  -1 -10  -5   30.18    7.09
   1  10   5   22.08    7.20
  -1 -10  -5   36.50    6.07
  -1  10  -5   30.71    5.68
  -1  10  -6   26.97    6.38
  -1  10  -6   27.99    4.58
  -1 -10  -6   38.09    4.75
  -1  10  -6   33.99    4.45
  -1  10  -6   37.53    3.97
  -1 -10  -6   39.52    8.37
   1  10   6   49.99   10.43
  -1  10  -6   36.55    4.33
  -1  10  -7  224.88   13.87
  -1  10  -7  179.10   19.09
  -1  10  -7  179.51   13.20
   1  10   7  190.67   22.05
  -1  10  -7  258.27   14.97
  -1  10  -7  233.29   12.71
  -1  10  -8   24.53    4.51
  -1  10  -8   22.47    4.15
  -1  10  -8   27.51    3.62
   1  10   8   16.46    7.38
  -1  10  -8   33.69    4.87
  -1  10  -9  349.39   19.17
  -1  10  -9  299.26   18.29
  -1  10 -10   11.67    3.55
  -1  10 -10    6.94    2.31
  -1 -10 -10   18.67    3.51
  -1  10 -10   12.22    3.13
  -1  10 -11   18.59    3.28
  -1 -10 -11   17.81    3.13
  -1  10 -11   21.15    3.79
  -1 -10 -12   -0.45    1.26
  -1 -10 -12    1.74    1.85
  -1  10 -12    1.07    1.73
  -1 -10 -13  159.89    8.46
   1 -11 -13    1.27    1.20
   1 -11 -12  134.88    8.29
   1 -11 -12  135.24    8.70
   1  11 -11    0.44    0.93
   1 -11 -11    1.87    2.43
   1  11 -11    1.60    2.41
   1 -11 -10  306.49   18.16
   1  11 -10  336.40   18.90
   1  11 -10  310.03   18.16
   1  11  -9    9.54    3.38
   1  11  -9   10.19    3.40
   1 -11  -8  649.05   35.36
   1  11  -8  674.79   34.25
   1  11  -8  682.66   34.39
   1  11  -8  669.11   34.72
  -1  11   8  606.10   46.96
   1  11  -8  698.53   35.14
   1  11  -7    8.96    2.88
   1 -11  -7    9.53    3.47
   1  11  -7    5.36    2.60
   1  11  -7    7.68    2.36
   1 -11  -6 1075.73   53.09
   1 -11  -6 1169.03   60.62
   1  11  -6 1101.40   52.45
   1  11  -6 1039.74   53.07
   1  11  -5    0.44    1.99
   1 -11  -5    1.49    3.15
   1 -11  -5    2.09    2.01
   1 -11  -4   71.92    9.16
  -1  11   4   72.44   10.63
   1  11  -4   73.31    6.02
   1  11  -4   67.46    5.63
  -1  11   3   21.30    5.80
   1  11  -3   21.80    3.19
  -1  11   2 1285.29   68.16
  -1  11   1    4.89    1.83
  -1  11   1    6.94    4.59
   1  11  -1    6.22    5.25
  -1  11   0 2151.48   99.71
   1  11   0 2086.59   99.67
   1  11   0 2294.87  108.74
   1  11   0 2335.47  112.86
  -1  11  -1   -0.40    1.51
   1  11   1    1.15    1.23
   1  11   1    3.25    4.31
   1  11   1    2.20    5.29
  -1  11  -1    1.72    4.36
   1  11   2 1032.19   49.89
  -1  11  -2 1054.46   50.25
   1  11   2 1095.21   59.27
  -1  11  -2 1009.17   56.72
   1  11   3   25.64    3.21
   1  11   3   21.61    7.51
   1  11   3   15.37    5.43
   1  11   4 1068.22   50.11
  -1  11  -4 1028.29   50.04
   1  11   4 1031.84   62.95
   1  11   4  991.08   60.50
   1  11   5   37.97    9.79
  -1 -11  -5   26.88    3.69
  -1  11  -5   29.72    3.74
  -1 -11  -5   31.80    7.59
   1  11   5   27.61    3.45
  -1 -11  -6   63.45   10.93
  -1  11  -6   77.72    6.80
   1  11   6   77.49   13.65
  -1  11  -6   83.44    7.56
  -1  11  -7   -0.64    2.46
   1  11   7   -5.94    5.31
  -1  11  -7    3.00    3.00
   1  11   8  115.50   17.09
  -1  11  -8  145.30   10.78
  -1  11  -8  155.33   11.15
  -1  11  -8  135.48   10.49
  -1  11  -9   13.73    3.37
  -1 -11 -10  751.43   38.22
  -1  11 -10  801.10   38.89
  -1  11 -11    2.48    2.51
  -1  11 -11   -0.42    1.95
  -1 -11 -11    3.45    2.12
  -1 -11 -12  351.76   17.30
  -1  11 -12  358.52   17.39
  -1 -11 -12  309.74   16.29
   1 -12 -12    0.57    1.57
   1 -12 -11   81.21    6.41
   1 -12 -11   87.91    5.45
   1  12 -11   99.60    6.16
   1 -12 -10    5.58    3.05
   1  12 -10    8.29    3.32
   1  12 -10    7.12    3.02
   1  12  -9   32.67    5.05
   1  12  -9   26.91    4.61
  -1  12   9   25.53    8.29
   1  12  -8   -0.72    2.81
   1  12  -8   -1.36    2.73
   1  12  -8   -0.65    2.34
  -1  12   8   -3.25    5.81
   1 -12  -8   -1.49    3.37
   1  12  -7 1244.93   62.04
   1 -12  -7 1300.94   62.30
   1  12  -7 1243.52   61.20
   1  12  -7 1299.97   62.00
   1 -12  -6    1.85    2.36
   1 -12  -6   -1.67    3.28
   1  12  -6   -1.94    2.79
  -1  12   6    2.48    4.87
   1  12  -5  156.77   10.38
   1 -12  -5  131.69   14.28
  -1  12   5  176.90   18.39
   1 -12  -5  163.06   10.61
   1 -12  -4   21.23    5.23
   1  12  -4   18.19    2.92
   1  12  -4   14.96    3.10
   1  12  -3    8.55    2.21
   1  12  -3    4.55    2.41
  -1  12   3    5.48    4.63
   1  12  -3    5.00    2.04
  -1  12   2    1.69    3.82
  -1  12   1  130.73   13.34
   1  12  -1  150.91   16.90
   1  12  -1  114.56    8.21
  -1  12   1  122.38    8.02
   1  12   0    1.76    4.45
   1  12   0    2.41    4.72
   1  12   0    1.71    1.57
  -1  12   0    0.42    1.73
   1  12   1  206.72   18.44
  -1  12  -1  186.20   18.56
   1  12   1  176.52   19.88
   1  12   1  189.70   11.62
  -1  12  -1  209.06   12.00
   1  12   2    5.86    4.43
   1  12   2    3.49    1.72
  -1  12  -2    2.40    2.14
  -1  12  -2    6.59    4.37
   1  12   3  197.62   18.76
  -1  12  -3  155.52   10.10
   1  12   3  171.58   10.48
   1  12   3  198.69   21.41
   1  12   4   23.44    7.83
  -1  12  -4   27.47    3.75
   1  12   4   26.14    3.46
   1  12   4   31.02    9.11
  -1 -12  -5  209.17   20.17
   1  12   5  232.01   23.32
  -1  12  -5  245.80   14.24
   1  12   5  234.47   13.73
   1  12   5  240.89   25.30
  -1 -12  -6    4.19    3.36
  -1  12  -6    0.60    2.40
   1  12   6   -3.11    6.59
  -1  12  -6    4.48    3.05
   1  12   6    2.86    5.60
  -1  12  -7  120.48    9.27
   1  12   7   91.50   16.17
  -1  12  -7  113.16    9.61
   1  12   7   99.93   16.14
   1  12   8   -6.09    5.97
  -1  12  -8    1.49    2.67
   1  12   8   -3.00    4.80
  -1  12  -8    1.41    3.24
  -1  12  -8   -2.77    3.23
  -1  12  -9   48.47    5.57
  -1 -12 -10   -0.90    2.41
  -1  12 -10   -0.58    2.38
  -1  12 -10    1.48    2.02
  -1  12 -11  396.34   20.87
  -1  12 -11  434.58   21.59
  -1 -12 -11  391.63   20.38
  -1 -12 -12   23.68    2.67
  -1  12 -12   24.62    2.70
  -1 -12 -12   18.76    1.91
   1 -13 -12  213.25   11.33
   1 -13 -11   -0.58    2.54
   1 -13 -11   -1.55    2.03
   1  13 -11   -0.39    0.88
   1 -13 -10  414.21   22.81
   1  13 -10  409.62   22.99
   1  13 -10  456.82   23.57
   1  13  -9   15.09    3.92
   1  13  -9   22.85    4.50
   1  13  -9   16.22    3.46
   1  13  -8  450.46   24.80
   1 -13  -8  455.24   25.38
  -1  13   8  388.30   36.64
  -1  13   8  349.55   33.97
   1  13  -8  468.26   25.53
   1  13  -8  482.83   25.44
   1  13  -7    4.95    3.05
   1 -13  -7    7.53    3.43
  -1  13   7    3.48    6.23
  -1  13   7    5.66    5.07
   1  13  -7    4.30    3.20
   1 -13  -6  682.22   36.20
   1  13  -6  739.79   36.80
   1  13  -6  702.11   36.73
  -1  13   6  739.79   48.29
   1 -13  -5   35.02    7.12
   1  13  -5   25.86    4.12
  -1  13   5   33.23    7.73
   1 -13  -5   38.38    4.68
   1  13  -4  813.51   40.06
   1  13  -4  781.84   39.64
   1 -13  -4  816.49   45.98
   1  13  -4  804.49   40.31
  -1  13   4  776.20   49.71
   1  13  -3   -0.47    1.77
   1  13  -3   -1.12    2.05
  -1  13   3   -2.02    4.28
   1  13  -3    1.00    1.79
  -1  13   2  146.03    9.38
  -1  13   2  147.02   15.62
   1  13  -2  147.25    9.60
  -1  13   1    1.77    3.17
   1  13  -1    0.52    1.95
  -1  13   1    0.89    1.70
   1  13  -1    5.15    5.83
   1  13  -1    1.75    1.78
   1  13   0 1573.96   82.41
  -1  13   0 1478.84   79.74
  -1  13   0 1350.01   66.11
   1  13   1   -2.04    4.01
  -1  13  -1    0.49    1.85
   1  13   1    1.43    1.79
  -1  13  -1    2.20    3.94
   1  13   1    8.37    7.06
   1  13   2  253.65   22.18
  -1  13  -2  220.03   13.22
   1  13   2  244.92   13.97
  -1  13  -2  262.67   14.43
   1  13   3   -2.34    3.74
  -1  13  -3    0.45    1.74
   1  13   3    0.49    1.95
   1  13   3    2.98    4.77
   1  13   4 1549.90   90.15
  -1  13  -4 1620.84   77.49
   1  13   4 1651.60   77.42
   1  13   4 1751.34   95.37
  -1 -13  -5   62.70   10.84
   1  13   5   58.46   11.47
  -1  13  -5   59.02    5.91
   1  13   5   62.57    5.57
   1  13   5   55.00   12.97
  -1 -13  -6  135.76   15.85
  -1  13  -6  121.64    9.18
   1  13   6   93.40   16.69
  -1  13  -6  125.78   10.12
   1  13   6  102.13   16.67
  -1  13  -7    5.50    3.26
   1  13   7    3.31    5.31
  -1  13  -7    3.17    3.30
   1  13   7    9.36    5.59
   1  13   8  889.48   64.20
  -1  13  -8 1053.90   53.00
   1  13   8  844.62   64.16
  -1  13  -8 1153.66   53.21
  -1  13  -8 1084.58   52.64
  -1  13  -9   15.97    4.12
  -1  13  -9   16.24    3.49
  -1 -13 -10   69.57    5.96
  -1  13 -10   76.27    6.65
  -1  13 -10   75.57    5.97
  -1  13 -11   -0.41    2.11
  -1  13 -11    2.09    1.70
  -1 -13 -11    4.11    1.72
  -1 -13 -12  769.35   36.21
   1 -14 -12    1.74    1.22
   1 -14 -11  121.99    5.48
   1 -14 -11  105.28    6.51
   1 -14 -10    2.84    2.55
   1  14 -10    2.21    2.35
   1  14  -9 1422.27   67.01
   1  14  -9 1421.90   67.03
   1  14  -9 1297.99   66.33
   1  14  -8   21.60    4.45
   1  14  -8   14.93    3.61
   1 -14  -8   15.35    3.95
  -1  14   8   24.14    9.18
  -1  14   8   20.10    7.31
   1  14  -7  667.52   33.49
   1  14  -7  628.79   33.49
   1 -14  -7  590.81   32.62
  -1  14   7  652.46   49.28
  -1  14   7  594.60   44.55
   1  14  -6   -1.45    2.84
   1 -14  -6    0.63    2.91
   1  14  -6   -0.63    2.57
  -1  14   6    3.58    6.41
  -1  14   6    2.72    4.36
   1  14  -5 1016.70   50.81
   1 -14  -5 1028.52   57.25
  -1  14   5 1000.82   62.46
   1 -14  -5 1061.02   50.83
   1  14  -4    9.91    2.72
   1 -14  -4   12.31    4.79
  -1  14   4   11.76    5.97
   1  14  -4    8.88    2.72
  -1  14   3  368.76   29.19
   1  14  -3  382.45   20.95
  -1  14   2   -0.97    1.86
  -1  14   2   -4.17    4.41
   1  14  -2   -0.52    1.94
  -1  14   1 1074.48   52.98
   1  14  -1 1102.84   53.64
  -1  14   1 1145.77   68.35
   1  14  -1 1104.38   53.00
  -1  14   0    5.10    2.24
   1  14   0    8.99    5.36
  -1  14   0    2.74    4.39
  -1  14   0    1.63    1.50
   1  14   0    2.84    2.01
   1  14   1  276.74   24.67
  -1  14  -1  284.00   16.13
  -1  14  -1  307.60   16.86
   1  14   1  270.28   27.86
  -1  14  -1  274.28   25.19
   1  14   2    7.15    5.40
  -1  14  -2   -0.45    1.83
   1  14   2    2.11    1.84
  -1  14  -2    2.29    2.05
   1  14   2    3.20    5.72
  -1  14  -2    1.96    2.22
   1  14   2    1.55    1.76
  -1  14  -3 1985.40   97.08
   1  14   3 2166.81   97.59
   1  14   3 2130.69  111.42
   1  14   4   -5.48    5.37
  -1  14  -4    4.36    2.54
  -1 -14  -4   -3.88    4.11
   1  14   4    0.53    2.06
   1  14   4    3.38    6.63
   1  14   5 1227.08   74.52
  -1  14  -5 1214.44   60.14
   1  14   5 1163.29   76.62
   1  14   5 1295.89   59.67
  -1 -14  -5 1144.64   68.56
  -1 -14  -6   -4.23    4.78
  -1  14  -6    1.98    2.90
   1  14   6   -3.53    5.65
  -1  14  -6    1.61    3.03
   1  14   6   -6.24    7.07
  -1  14  -7  136.05   10.10
   1  14   7  123.30   18.83
   1  14   7   91.89   16.22
  -1  14  -7  123.35   10.10
  -1  14  -8    9.02    3.09
  -1  14  -8    8.65    3.45
  -1  14  -8   17.31    4.49
  -1  14  -9 1221.18   56.73
  -1  14  -9 1172.93   56.83
  -1  14  -9 1090.06   55.48
  -1 -14 -10   10.90    2.73
  -1  14 -10    8.59    2.75
  -1 -14 -11  591.35   28.03
  -1  14 -11  575.50   28.46
   1 -15 -11   -1.14    1.69
   1 -15 -10   53.73    5.13
   1  15 -10   60.92    5.67
   1  15  -9    0.61    2.24
   1  15  -9    4.65    3.36
   1  15  -8   13.05    3.33
   1  15  -8   17.08    4.21
   1  15  -7    1.43    3.04
   1  15  -7    1.51    3.02
   1 -15  -7    0.66    2.63
  -1  15   7    3.72    5.95
  -1  15   7   -5.73    5.62
   1  15  -6   35.08    5.33
   1 -15  -6   23.89    4.18
   1  15  -6   26.68    4.41
  -1  15   6   11.20    7.41
  -1  15   6   19.56    7.50
   1 -15  -5   -0.59    2.26
   1  15  -5    3.40    2.98
   1  15  -5    7.44    3.18
  -1  15   5   10.87    7.67
   1 -15  -4  544.85   34.79
  -1  15   4  569.62   28.74
  -1  15   4  541.67   39.46
   1  15  -4  549.97   29.46
  -1  15   3    4.77    4.70
  -1  15   3    8.93    2.85
  -1  15   3   10.24    7.24
   1  15  -3   12.02    3.00
  -1  15   2  400.89   29.63
  -1  15   2  346.98   19.34
  -1  15   2  308.15   31.30
   1  15  -2  345.95   19.60
   1  15  -1    1.29    2.48
  -1  15   1    0.54    2.09
  -1  15   1   -3.24    5.80
   1  15  -1    2.18    2.14
   1  15   0   12.07    3.49
  -1  15   0    8.40    2.77
   1  15   0    6.59    5.91
  -1  15   0   15.09    7.26
   1  15   0   16.23    3.06
  -1  15   0    9.91    2.47
   1  15   1   12.44    5.99
  -1  15  -1   10.53    3.10
  -1  15  -1   10.53    5.97
   1  15   1   17.13    7.77
  -1  15  -1    9.35    2.53
   1  15   2    3.51    6.88
   1  15   2    2.59    5.09
  -1  15  -2    5.91    2.83
   1  15   2    6.21    2.40
  -1  15  -3  121.44    8.83
   1  15   3  126.66    9.08
   1  15   3  123.07   17.02
   1  15   4  186.03   22.01
  -1  15  -4  203.71   12.98
  -1 -15  -4  158.64   17.87
   1  15   4  220.52   12.99
   1  15   4  221.82   26.02
  -1 -15  -5   31.15    7.99
  -1  15  -5   39.11    5.18
   1  15   5   51.61   12.64
   1  15   5   46.22   11.17
   1  15   6  265.20   28.12
  -1  15  -6  300.10   17.88
  -1 -15  -6  280.27   24.23
  -1  15  -6  319.30   18.99
   1  15   6  238.49   28.54
   1  15   7    3.48    3.94
  -1  15  -7    1.38    3.41
  -1  15  -7   -0.78    3.26
   1  15   7    3.16    5.06
  -1  15  -8  347.97   19.40
  -1  15  -8  293.18   18.15
  -1  15  -8  310.85   19.26
  -1  15  -8  348.71   19.37
  -1  15  -9   52.39    5.58
  -1  15  -9   53.54    5.78
  -1 -15 -10    1.65    1.83
  -1  15 -10    1.82    2.09
  -1  15 -10    7.23    2.56
  -1  15 -11    3.17    1.47
  -1 -15 -11    5.43    1.33
   1 -16 -11  200.22   10.64
   1  16 -10   38.41    4.43
   1 -16 -10   39.42    4.01
   1  16  -9  795.41   18.41
   1  16  -9   -0.56    1.27
   1  16  -8    6.29    2.63
   1  16  -8    0.77    3.09
   1  16  -8   -0.73    3.24
   1 -16  -7  203.30   12.67
   1  16  -7  180.75   12.72
   1  16  -7  176.26   13.03
   1  16  -6   33.81    5.20
   1 -16  -6   31.09    4.63
  -1  16   6   22.96   10.26
  -1  16   6   42.08   10.39
  -1  16   5  931.04   45.32
   1 -16  -5  957.63   45.88
  -1  16   5  873.23   62.99
  -1  16   5  842.59   57.42
   1  16  -5  904.58   46.52
   1 -16  -4   90.34    7.45
  -1  16   4   78.20    6.88
  -1  16   4   92.05   14.04
   1  16  -4   97.34    8.08
  -1  16   3  574.04   40.59
  -1  16   3  562.04   29.47
  -1  16   3  529.44   44.69
   1  16  -3  580.59   30.23
   1  16  -2    1.42    2.61
  -1  16   2    5.79    2.41
  -1  16   2    3.64    6.52
   1  16  -2    3.12    2.65
  -1  16   1  816.24   42.38
   1  16  -1  872.82   43.44
  -1  16   1  884.49   59.91
   1  16  -1  857.01   42.67
   1  16   0   13.24    3.56
  -1  16   0    9.66    2.82
  -1  16   0   13.03    6.91
   1  16   0   10.85    3.07
  -1  16   0   10.82    2.77
   1  16   1  375.17   22.65
  -1  16  -1  391.29   22.51
   1  16   1  450.88   23.25
  -1  16  -1  404.96   21.98
  -1  16  -1  445.58   34.91
   1  16   1  395.39   37.23
   1  16   2   15.17    3.19
  -1  16  -2   18.31    3.44
   1  16   2    8.36    6.35
  -1  16  -3 1045.57   51.64
   1  16   3 1050.67   65.41
  -1  16  -4  107.01    8.60
  -1  16  -4   87.60    7.70
   1  16   4   92.05   17.60
   1  16   4  118.37   16.83
  -1 -16  -4   73.58   11.64
  -1  16  -5  393.07   21.58
  -1 -16  -5  379.08   28.79
   1  16   5  317.78   34.04
   1  16   5  340.97   32.92
   1  16   6   28.79    8.96
  -1  16  -6   36.82    5.43
  -1  16  -6   30.92    5.25
  -1 -16  -6   41.43    8.45
   1  16   6   14.93    9.05
  -1  16  -6   21.01    4.43
  -1  16  -7  112.24    9.80
  -1  16  -7  127.81   10.35
  -1  16  -7  146.24   10.38
  -1  16  -8    3.12    2.22
  -1  16  -8   13.22    3.43
  -1  16  -8   11.21    3.57
  -1  16  -9  602.27   31.47
  -1  16  -9  617.98   31.24
  -1 -16 -10   17.15    2.54
  -1  16 -10   17.83    2.94
  -1 -16 -11  465.91   22.36
   1 -17 -11   -0.17    0.91
   1 -17 -10  100.27    6.82
   1 -17 -10  117.36    8.38
   1  17 -10  116.43    7.69
   1  17  -9   -0.49    1.11
   1  17  -9    2.92    2.84
   1  17  -8   80.16    6.73
   1  17  -8   87.82    7.97
   1  17  -8   86.36    7.96
   1  17  -7   -0.65    2.43
   1  17  -6  338.98   19.23
   1 -17  -6  302.39   17.82
  -1  17   6  272.41   27.25
   1  17  -6  312.72   19.08
  -1  17   6  332.27   33.25
  -1  17   5   27.61    3.97
  -1  17   5   24.70    8.03
   1  17  -5   33.56    5.19
  -1  17   4  345.74   30.54
   1  17  -4  337.83   20.60
  -1  17   4  369.82   19.94
  -1  17   4  353.79   35.39
  -1  17   3   -2.65    4.24
   1  17  -3    2.07    2.76
  -1  17   3   -3.90    6.97
  -1  17   3    2.37    2.37
   1  17  -2   16.80    3.72
  -1  17   2   27.20    9.88
  -1  17   2   22.13    3.98
   1  17  -2   21.25    4.35
   1  17  -1   22.01    4.11
  -1  17   1   15.04    8.01
   1  17  -1   16.61    4.15
  -1  17   1   21.99    4.00
  -1  17   0  549.17   27.84
  -1  17   0  468.66   40.81
   1  17   0  532.26   29.20
  -1  17   0  529.10   28.46
  -1  17  -1    4.52    2.15
   1  17   1    9.74    2.92
   1  17   1    7.37    3.75
  -1  17  -1    9.35    3.09
  -1  17  -2   68.67    6.54
   1  17   2   66.28    6.58
   1  17   2   56.45   14.74
   1  17   3   -3.02    5.93
  -1  17  -3    1.28    2.46
   1  17   3    8.02    9.08
  -1 -17  -4  819.42   53.40
   1  17   4  911.56   60.79
  -1  17  -4  961.35   46.52
   1  17   5    6.34    6.22
  -1 -17  -5    5.94    4.76
   1  17   5    3.89    6.23
  -1  17  -5   10.72    3.97
  -1  17  -6   49.65    6.57
  -1  17  -6   72.32    6.86
  -1  17  -6   71.08    7.27
  -1  17  -7    1.40    2.51
  -1  17  -7   -0.71    3.17
  -1  17  -7    1.91    2.84
  -1  17  -8  100.62    7.96
  -1  17  -9    8.57    2.82
  -1  17  -9    0.40    0.79
  -1 -17 -10   25.41    2.54
  -1  17 -10   23.72    2.96
   1 -18 -10   12.27    1.98
   1  18  -9   11.42    3.28
   1  18  -8    1.34    2.73
   1  18  -8   -1.30    2.75
   1  18  -7   56.59    7.26
   1  18  -7   62.81    6.10
   1  18  -6    0.74    3.34
   1  18  -6    2.07    2.71
  -1  18   5   53.84   11.29
   1  18  -5   59.50    6.83
  -1  18   4    0.56    2.12
   1  18  -4    1.45    3.48
  -1  18   4    3.95    6.33
  -1  18   3  138.69    9.96
   1  18  -3  150.08   10.94
   1  18  -2    3.16    3.17
  -1  18   2    2.55    2.84
   1  18  -2    7.77    3.30
  -1  18   2    8.08    7.23
   1  18  -1  117.63   10.26
  -1  18   1  144.61   10.22
   1  18  -1  135.40   10.20
  -1  18   1  139.94   21.26
  -1  18   0   30.36    4.66
   1  18   0   38.61    5.52
  -1  18   0   48.50    4.94
   1  18   0   44.28    6.05
  -1  18   0   24.40    8.99
  -1  18  -1   18.86    3.66
   1  18   1   27.04    4.67
   1  18   1   20.08    4.52
   1  18   2   -0.75    2.95
   1  18   2   -0.67    2.32
  -1  18  -2   -1.87    2.59
   1  18   2    4.16    8.81
   1  18   3    7.26    3.09
   1  18   3    4.10    6.57
  -1  18  -3    7.85    3.07
  -1 -18  -4   29.67    7.11
  -1  18  -4   19.80    4.07
  -1  18  -5   59.05    6.50
  -1  18  -6   16.84    4.17
   1  18   6   10.75    2.89
  -1  18  -6   14.91    4.05
  -1  18  -7  236.01   14.54
  -1  18  -7  210.36   13.13
  -1  18  -7  226.77   14.16
  -1  18  -8   -0.48    1.90
  -1  18  -9   20.35    3.31
  -1  18 -10   12.67    1.93
  -1 -18 -10    9.04    1.41
   1 -19 -10  266.58   13.21
   1 -19  -9    7.75    2.57
   1  19  -8  654.21   34.37
   1  19  -8  696.05   34.68
   1  19  -7    3.86    2.11
   1  19  -7   -0.77    3.22
   1  19  -6  728.26   37.31
   1  19  -6  751.61   39.20
   1  19  -6  718.80   37.94
   1  19  -5   60.57    6.79
  -1  19   4  659.24   34.33
   1  19  -4  709.08   35.98
  -1  19   3   48.76    5.40
   1  19  -3   54.45    6.36
  -1  19   3   56.46   13.89
  -1  19   2  869.94   43.47
   1  19  -2  915.95   44.97
   1  19  -2  840.93   43.87
   1  19  -1   22.63    4.70
  -1  19   1   20.65    4.17
   1  19  -1   31.63    5.48
  -1  19   1   23.23    9.36
  -1  19   0  530.98   29.50
   1  19   0  529.42   30.15
   1  19   0  601.91   30.75
   1  19   1   10.98    3.78
  -1  19  -1    5.99    2.86
   1  19   1    7.45    3.34
   1  19   2  675.76   37.16
   1  19   2  738.47   36.84
  -1  19  -2  716.09   36.51
  -1 -19  -3    5.86    4.43
   1  19   3    7.93    3.27
  -1  19  -3    3.28    2.88
   1  19   4  766.30   39.39
  -1  19  -4  774.36   39.53
   1  19   5   22.99    3.99
  -1  19  -5   25.71    4.69
   1  19   6  448.10   24.07
  -1  19  -6  421.91   24.97
  -1  19  -7    2.19    2.32
  -1  19  -7    2.40    2.80
  -1  19  -8  289.79   16.42
  -1  19  -8  286.07   16.27
  -1 -19  -9    3.36    1.50
   1 -20  -8    1.11    2.31
   1  20  -8    0.48    1.95
   1  20  -7   39.33    5.35
   1  20  -7   37.86    5.20
   1  20  -6    3.73    2.26
   1  20  -6    4.60    3.07
   1  20  -6    2.44    3.39
   1  20  -5  465.65   25.79
   1  20  -5  489.63   26.36
  -1  20   4    3.98    2.37
   1  20  -4    5.25    3.84
   1  20  -4    7.69    3.63
  -1  20   3   11.29    3.13
   1  20  -3    9.85    3.36
  -1  20   2    1.23    2.31
   1  20  -2    0.85    3.59
   1  20  -1  215.57   14.89
  -1  20   1  222.10   14.29
   1  20  -1  228.53   15.30
   1  20   0    3.93    2.95
   1  20   0    2.38    3.05
   1  20   1  281.66   17.63
   1  20   1  276.31   17.31
  -1  20  -1  281.88   16.49
   1  20   2    0.73    2.82
   1  20   2    2.54    2.59
  -1  20  -2    0.62    2.58
   1  20   3  516.16   29.41
  -1  20  -3  594.57   29.71
   1  20   4    5.66    2.91
  -1  20  -4   12.30    3.65
   1  20   5   75.37    6.82
  -1  20  -5   88.31    7.91
  -1  20  -5   96.07    7.91
  -1  20  -6    0.59    2.28
  -1  20  -6    0.60    2.80
  -1  20  -7    9.43    2.48
  -1  20  -7   13.15    3.21
  -1  20  -8    1.54    1.69
  -1  20  -8    0.82    2.01
   1  21  -8  201.35   11.43
   1 -21  -7   -1.08    2.56
   1  21  -7   -0.58    2.58
   1 -21  -6  356.70   12.29
   1  21  -6  369.78   13.60
   1  21  -5    8.82    2.75
   1 -21  -4  410.84   23.42
   1  21  -4  444.25   24.88
  -1  21   3   22.59    3.49
   1  21  -3   22.90    4.69
   1  21  -2 2040.82   97.98
   1  21  -1    7.56    3.70
  -1  21   1   10.67    3.12
   1  21  -1    7.12    3.43
   1  21   0  350.46   21.31
   1  21   0  382.78   21.66
   1  21   1   16.58    4.00
   1  21   1   19.15    3.80
   1  21   2  563.77   30.34
  -1  21  -2  574.39   29.70
   1  21   3   66.44    6.65
  -1  21  -3   67.27    6.51
   1  21   4  209.43   13.10
  -1  21  -4  211.59   13.41
  -1  21  -5   18.93    3.84
   1  21   5   21.72    3.28
  -1  21  -5   21.98    3.99
  -1  21  -6  578.93   29.76
  -1  21  -6  588.01   30.07
  -1  21  -7   -0.44    2.19
  -1  21  -7   -0.49    2.17
  -1  21  -8  136.58    8.22
   1 -22  -8    0.16    0.83
   1  22  -7  993.84   47.98
   1  22  -6   52.53    5.79
   1  22  -5    0.44    0.70
   1 -22  -5  172.96    8.09
   1  22  -4  147.49   11.24
   1  22  -3  350.85   20.83
   1  22  -2   -0.74    3.19
  -1  22   1  364.31   20.39
   1  22  -1  378.96   21.70
   1  22   0  135.45   10.37
   1  22   0  134.76   10.45
  -1  22   0  152.45   10.49
   1  22   1 1006.27   51.76
   1  22   1 1031.21   51.53
  -1  22  -1 1120.93   52.42
   1  22   2   -1.83    2.49
   1  22   3  232.40   14.07
   1  22   4   27.16    3.52
  -1  22  -4   21.61    4.00
   1  22   4   14.40    3.30
  -1  22  -5  279.70   16.12
  -1  22  -5  283.06   16.10
  -1  22  -6   21.46    3.41
  -1  22  -6   24.26    3.84
  -1  22  -7  251.33   13.77
   1  23  -6    9.00    2.74
   1  23  -5   -0.58    2.36
   1  23  -5    1.60    2.26
   1  23  -4   62.33    6.36
   1  23  -3   19.43    4.21
   1  23  -2  217.91   14.03
   1  23  -1    2.50    2.74
   1  23   0   83.12    7.18
  -1  23   0   80.60    6.83
   1  23   1    0.48    2.25
  -1  23  -1    0.59    2.59
   1  23   2   28.96    3.89
  -1  23  -2   20.91    4.01
   1  23   3    4.98    2.22
  -1  23  -3    9.22    3.16
  -1  23  -4   13.19    2.87
  -1  23  -4   17.61    3.52
  -1  23  -5   -1.55    2.38
  -1  23  -6    9.85    2.30
   1  24  -5  111.26    7.85
   1  24  -4   15.65    3.31
   1  24  -3  377.13   20.67
   1  24  -2    7.45    2.75
   1  24  -1  167.11   10.80
   1  24   0  102.23    7.54
  -1  24   0  111.78    7.55
  -1  24  -1  104.11    7.70
  -1  24  -2   -1.01    2.10
  -1  24  -3  183.69   11.55
   1  24   3  184.81   11.47
  -1  24  -3  216.47   12.31
  -1  24  -4    9.71    2.63
  -1  24  -5  608.82   30.18
   1  25  -4   56.96    4.81
   1  25  -3    7.01    2.49
   1  25  -3    6.74    2.13
   1  25  -2  175.69   10.61
   1  25  -1   15.96    2.57
  -1  25  -1   11.48    2.16
   1  25   2  504.15   26.02
  -1  25  -2  522.65   25.80
  -1  25  -3   12.60    2.44
  -1  25  -4  122.48    7.55
   1  26  -1   65.23    5.42
   1  26   0   -0.39    1.46
   2   0 -14 1215.20   56.52
   2   0 -13    1.87    2.35
   2   0 -13    3.15    2.14
   2   0 -12  204.52   13.24
   2   0 -12  220.77   14.72
   2   0 -11   13.96    4.43
   2   0 -11   22.98    4.43
   2   0 -11   28.67    5.58
   2   0 -11   31.62    4.64
   2   0 -11   28.27   10.25
   2   0 -10  648.16   33.18
   2   0 -10  612.20   33.44
   2   0 -10  583.87   32.08
   2   0 -10  644.93   32.07
   2   0  -9   -1.35    3.10
   2   0  -9   -0.60    2.47
   2   0  -9   -1.67    2.44
   2   0  -9   -0.74    3.20
   2   0  -9    2.96    4.10
   2   0  -8   49.87    5.99
   2   0  -8   54.54    5.60
   2   0  -8   66.13    6.74
   2   0  -8   51.43   11.21
   2   0  -8   59.75    5.44
   2   0  -7   34.88    4.76
   2   0  -7   36.65    4.65
   2   0  -7   41.76    4.31
   2   0  -7   34.17    3.95
   2   0  -6 7406.57  340.86
   2   0  -6 7270.61  332.79
   2   0  -5   22.82    5.20
   2   0  -5   24.46    3.13
   2   0  -4 3053.50  144.36
   2   0  -3   -2.12    1.96
   2   0  -2 3371.63  156.08
   2   0  -1    0.44    1.88
   2   0   0  858.50   41.40
   2   0   0  832.70   38.66
  -2   0  -1   11.30    2.51
   2   0   1   22.38    3.62
  -2   0  -2 1226.28   59.43
  -2   0  -3   15.86    3.84
  -2   0  -4  233.71   12.69
  -2   0  -5    9.10    3.63
  -2   0  -5    6.19    1.91
  -2   0  -6  693.59   43.62
  -2   0  -6  651.72   36.87
  -2   0  -6  662.87   33.33
  -2   0  -6  618.14   32.17
  -2   0  -7   33.90    4.91
  -2   0  -7   32.21    9.72
  -2   0  -7   31.84    4.20
  -2   0  -8 2144.29  100.34
  -2   0  -8 2222.94  102.58
  -2   0  -8 2251.36  117.86
  -2   0  -8 2077.52   98.86
  -2   0  -9   -0.95    3.58
  -2   0  -9    0.40    1.89
  -2   0  -9    3.18    3.01
  -2   0  -9    3.40    4.72
  -2   0 -10  106.54    8.60
  -2   0 -10   87.17   16.46
  -2   0 -10  104.06   10.13
  -2   0 -11    0.93    3.51
  -2   0 -11   -0.60    2.75
  -2   0 -12 1617.84   82.79
  -2   0 -12 1793.43   81.25
  -2   0 -13    1.63    1.82
  -2   0 -13    0.21    0.50
   2   1 -14    4.36    1.60
   2  -1 -14    2.58    1.53
   2   1 -13  185.57   11.27
   2  -1 -13  182.20   11.26
   2  -1 -13  196.85   11.69
   2  -1 -13  209.15   12.85
   2   1 -12    1.16    2.79
   2  -1 -12   -1.16    2.46
   2  -1 -12    3.91    3.75
   2   1 -12   -1.03    2.52
   2   1 -11   47.72    6.36
   2  -1 -11   45.88    6.27
   2  -1 -11   47.80    6.84
   2  -1 -11   58.44    6.19
   2   1 -11   50.48    6.12
   2  -1 -11   52.98    5.86
   2  -1 -11   48.81   12.99
   2  -1 -10    1.48    2.77
   2   1 -10   -0.66    2.78
   2  -1 -10    0.66    2.94
   2  -1 -10   -0.83    3.63
   2   1 -10    0.59    2.63
   2  -1 -10   -2.40    2.72
   2  -1 -10    3.34    5.34
   2   1  -9  122.06    9.75
   2  -1  -9  118.26    9.46
   2  -1  -9  136.44   10.27
   2   1  -9  116.69    9.18
   2   1  -9  137.67    9.40
   2  -1  -9  132.58    9.40
   2  -1  -9  111.02   17.01
   2  -1  -8   -0.71    2.65
   2  -1  -8    3.32    1.93
   2   1  -8    0.59    2.40
   2  -1  -8    1.45    2.17
   2   1  -8    0.52    1.96
   2  -1  -8   -2.42    4.75
   2  -1  -8    0.50    2.26
   2   1  -8   -0.97    1.98
   2  -1  -7   19.87    3.56
   2  -1  -7   21.45    6.47
   2  -1  -7   11.20    2.55
   2   1  -7   15.14    2.72
   2  -1  -7   14.26    3.16
   2   1  -7   13.55    2.76
   2  -1  -6    1.54    4.44
   2  -1  -6    0.46    2.07
   2  -1  -5  217.83   16.58
   2  -1  -5  213.12   12.11
   2  -1  -4  197.39   14.30
   2  -1  -3   37.32    4.94
   2  -1  -2   -0.54    2.09
   2  -1  -1  207.44   12.12
   2  -1  -1  206.52   11.10
   2  -1  -1  198.52   12.11
  -2   1   0    2.03    0.97
   2   1   0    3.98    1.21
   2   1   0    2.48    1.95
  -2   1  -1  913.79   45.28
   2   1   1 1010.67   46.94
  -2  -1  -2    0.60    2.05
   2   1   2   -1.25    2.12
  -2  -1  -3  848.36   44.50
   2   1   3  882.72   44.07
  -2   1  -4    8.80    2.02
  -2  -1  -4   11.04    3.79
  -2   1  -4   10.00    3.12
  -2  -1  -4   11.47    2.24
  -2   1  -5   34.59    5.79
  -2  -1  -5   25.53    4.68
   2   1   5   24.45    4.29
  -2  -1  -5   22.82    3.09
  -2   1  -5   26.15    3.37
   2   1   6   29.86    5.18
  -2  -1  -6   30.50    4.36
  -2  -1  -6   32.82    5.57
  -2   1  -6   18.97    5.04
  -2  -1  -6   37.97    8.86
  -2  -1  -6   33.24    3.87
  -2   1  -6   30.92    3.83
  -2   1  -7  164.43   10.70
  -2  -1  -7  185.77   12.48
  -2  -1  -7  142.97   18.26
  -2  -1  -7  166.61   11.09
  -2  -1  -7  176.67   10.09
  -2  -1  -8    3.05    6.46
  -2  -1  -8    5.86    2.11
  -2  -1  -8    5.02    3.61
  -2   1  -8    5.13    2.51
  -2  -1  -9   13.40    8.49
  -2  -1  -9   13.32    2.68
  -2  -1  -9    8.44    4.60
  -2  -1  -9   11.45    3.39
  -2   1  -9   14.01    3.65
  -2  -1 -10    6.84    7.25
  -2   1 -10    3.93    2.98
  -2  -1 -10    7.15    3.46
  -2  -1 -10    5.55    2.23
  -2  -1 -10    5.88    3.93
  -2   1 -11   13.86    3.82
  -2  -1 -11    7.70    3.38
  -2  -1 -11   10.05    4.47
  -2  -1 -12    9.90    3.02
  -2  -1 -12   14.61    3.45
  -2   1 -13    0.22    0.53
  -2  -1 -13   19.97    2.82
   2   2 -14  261.57   13.40
   2  -2 -14  262.83   13.48
   2  -2 -13    5.26    2.51
   2  -2 -13    1.95    2.06
   2   2 -13    1.92    2.05
   2  -2 -13    4.71    2.58
   2   2 -13    9.18    3.40
   2  -2 -12  433.60   23.79
   2   2 -12  405.27   23.56
   2  -2 -12  442.58   24.34
   2   2 -12  446.42   25.27
   2  -2 -12  464.16   25.29
   2   2 -12  460.16   23.58
   2   2 -11   13.87    4.08
   2  -2 -11    0.73    3.54
   2   2 -11    3.93    2.87
   2  -2 -11    1.97    2.97
   2   2 -11   -7.02    9.31
   2  -2 -11  -10.21   11.55
   2  -2 -11    0.59    2.99
   2  -2 -11    6.66    3.94
   2  -2 -10  112.68    9.39
   2  -2 -10   93.87    8.49
   2   2 -10   99.82    8.97
   2   2 -10   89.38    7.02
   2   2 -10  105.82    8.46
   2  -2 -10   71.87   14.97
   2   2 -10   70.80   14.93
   2  -2 -10  102.74    8.14
   2  -2  -9    4.46    2.90
   2   2  -9    8.72    3.45
   2  -2  -9    2.87    5.63
   2   2  -9   -2.97    6.30
   2   2  -9    3.02    2.74
   2   2  -9    4.94    2.75
   2  -2  -9    5.71    2.86
   2  -2  -9   11.52    3.83
   2  -2  -8  229.46   14.78
   2  -2  -8  197.57   13.27
   2  -2  -8  210.69   14.40
   2  -2  -8  194.70   13.86
   2   2  -8  212.88   13.82
   2   2  -8  244.51   15.01
   2   2  -8  249.34   13.83
   2  -2  -8  247.12   13.78
   2   2  -8  235.06   13.43
   2  -2  -8  235.79   22.15
   2  -2  -7    6.82    2.64
   2   2  -7    8.60    2.78
   2  -2  -7    9.57    2.65
   2  -2  -7   11.27    2.47
   2   2  -7    5.03    2.41
   2  -2  -7    5.77    4.88
   2   2  -7    5.39    2.60
   2  -2  -7    4.03    2.14
   2  -2  -7   12.03    2.60
   2   2  -7   10.21    2.38
   2  -2  -6 1480.41   68.12
   2   2  -6 1438.96   68.13
   2  -2  -6 1473.46   75.42
   2   2  -6 1402.17   66.44
   2  -2  -5   16.20    2.75
   2   2  -5   18.34    2.82
   2  -2  -5   17.86    4.64
   2  -2  -4 4893.06  227.55
   2  -2  -3   53.29    5.89
   2   2  -2  688.41   35.69
   2  -2  -2  718.54   35.90
   2  -2  -2  727.16   36.64
   2  -2  -1   13.71    1.86
   2  -2  -1   17.55    2.93
   2   2   0  681.03   33.50
   2   2   0  654.87   32.50
   2   2   1    7.85    2.36
   2   2   1    7.14    2.43
   2   2   2  400.50   22.15
  -2  -2  -3   10.05    3.12
   2   2   3    8.32    2.89
   2   2   4  803.95   37.24
  -2   2  -4  675.36   33.63
  -2  -2  -4  684.07   33.57
  -2  -2  -4  764.79   39.04
  -2   2  -4  688.94   37.95
   2   2   4  630.53   36.61
   2   2   5    8.24    3.04
  -2   2  -5    8.97    2.18
  -2  -2  -5    6.17    2.30
  -2   2  -5    5.46    2.16
  -2  -2  -5    7.05    2.21
  -2  -2  -5    3.54    2.37
  -2   2  -5    9.27    3.60
  -2   2  -6  280.41   16.84
  -2  -2  -6  294.28   16.83
  -2  -2  -6  289.93   24.39
  -2  -2  -6  297.78   19.20
  -2   2  -6  281.97   20.72
  -2  -2  -6  276.85   15.95
  -2  -2  -7   21.52    3.79
  -2   2  -7   25.77    3.66
  -2  -2  -7   37.87    5.21
  -2  -2  -7   22.67    3.07
  -2  -2  -7   36.43    9.38
  -2   2  -8  589.98   30.27
  -2   2  -8  583.94   44.11
  -2  -2  -8  565.16   42.78
  -2  -2  -8  597.21   29.20
  -2  -2  -8  548.78   31.57
  -2   2  -9    1.35    2.41
  -2   2  -9    3.43    7.27
  -2  -2  -9    3.27    5.24
   2   2   9   -1.91    3.75
  -2   2  -9    0.64    2.60
  -2  -2  -9   -1.28    2.80
  -2  -2  -9   -0.92    3.44
  -2  -2  -9   -0.43    1.88
  -2   2 -10  448.67   24.18
  -2  -2 -10  467.54   24.29
  -2  -2 -10  466.11   26.26
  -2  -2 -10  436.50   37.59
  -2  -2 -10  409.45   22.26
  -2  -2 -11   10.60    4.30
  -2   2 -11   -0.60    3.35
  -2  -2 -11    5.85    3.00
  -2  -2 -12  418.78   22.16
  -2  -2 -13   -0.38    1.64
  -2   2 -13   -0.69    1.14
   2  -3 -14   -0.68    1.33
   2   3 -14   -0.84    1.28
   2   3 -13  621.59   30.93
   2  -3 -13  618.20   32.14
   2   3 -13  628.94   32.40
   2  -3 -13  637.06   31.36
   2  -3 -12    1.71    2.47
   2  -3 -12    0.51    2.86
   2   3 -12    7.58    3.21
   2  -3 -12    5.07    3.23
   2   3 -12    2.52    2.71
   2  -3 -12   -0.60    2.77
   2  -3 -11   94.97    8.75
   2   3 -11   82.48    8.45
   2   3 -11   86.37    7.38
   2   3 -11   70.15    8.21
   2  -3 -11   89.15    7.87
   2   3 -11   84.42    7.77
   2   3 -11   69.26    6.21
   2  -3 -11  107.89    8.21
   2   3 -11   68.74   14.52
   2  -3 -11   78.87   14.89
   2  -3 -11   90.99    7.52
   2   3 -10   39.06    5.61
   2  -3 -10   29.22    4.82
   2   3 -10   10.00    8.54
   2  -3 -10   12.69    9.25
   2   3 -10   33.58    4.82
   2   3 -10   29.74    3.81
   2  -3 -10   32.94    4.78
   2  -3 -10   38.46    5.71
   2   3 -10   23.09    5.04
   2  -3  -9   51.23    5.83
   2   3  -9   55.26    6.58
   2   3  -9   44.38   10.63
   2  -3  -9   56.07   11.50
   2   3  -9   53.54    5.10
   2   3  -9   59.44    6.04
   2  -3  -9   65.35    6.09
   2  -3  -9   59.75    6.55
   2   3  -9   59.36    6.57
   2   3  -8    3.85    2.19
   2  -3  -8    2.68    2.07
   2  -3  -8    4.63    3.00
   2   3  -8    3.68    2.35
   2  -3  -8    7.42    2.82
   2   3  -8    3.88    2.31
   2  -3  -8   14.02    6.21
   2   3  -8   14.80    5.92
   2  -3  -7  103.76    8.01
   2   3  -7   92.62    7.56
   2   3  -7  115.92    8.32
   2  -3  -7  102.46    7.82
   2  -3  -7   98.49    7.34
   2  -3  -7   83.39   11.66
   2   3  -7  121.06   14.32
   2   3  -7  106.66    6.74
   2   3  -7   88.11    7.65
   2  -3  -7   95.65    7.74
   2  -3  -7  107.18    7.55
   2   3  -7  105.51    7.21
   2   3  -6    0.26    1.06
   2  -3  -6   -3.02    4.52
   2   3  -6    1.56    3.53
   2   3  -6    2.37    2.11
   2  -3  -6    0.45    2.05
   2   3  -5 1874.65   90.95
   2  -3  -5 2043.32   91.39
   2   3  -5 1778.12   84.85
   2  -3  -5 1796.34   84.81
   2   3  -4  178.04   13.28
   2  -3  -4  172.13   13.13
   2  -3  -3  383.34   22.18
   2   3  -3  394.60   22.25
   2  -3  -2   83.68    6.90
   2   3  -2   70.64    6.53
   2  -3  -2   83.65    6.03
   2  -3  -2   96.74    7.69
   2   3  -2   88.61    7.49
   2  -3  -1  432.48   21.02
   2   3   0    9.14    2.45
   2   3   0   15.09    2.67
   2   3   1  493.84   26.38
   2   3   2   10.01    3.05
   2   3   2    6.67    2.93
  -2  -3  -3 2904.69  141.21
   2   3   3 2948.43  141.42
   2   3   3 3088.91  139.96
   2   3   4    5.92    2.22
  -2   3  -4    1.39    1.53
  -2  -3  -4    1.61    1.58
  -2  -3  -4    3.28    3.16
   2   3   4    5.97    3.09
  -2   3  -4    1.05    2.53
  -2  -3  -5  719.57   39.51
   2   3   5  727.11   41.02
  -2   3  -5  723.11   37.41
   2   3   5  783.67   39.69
  -2  -3  -5  786.18   37.51
  -2  -3  -5  754.04   36.89
  -2  -3  -5  809.64   43.36
  -2   3  -5  783.85   42.62
  -2   3  -5  765.22   46.31
  -2  -3  -5  759.12   45.51
  -2   3  -5  743.47   36.95
  -2  -3  -6   19.24    3.30
  -2   3  -6   22.14    3.14
  -2  -3  -6   21.54    3.66
  -2   3  -6   10.84    2.93
  -2  -3  -6   32.36    8.14
  -2   3  -6   11.38    6.09
  -2   3  -6   27.60    6.20
  -2  -3  -6   14.58    3.80
  -2   3  -7 1109.44   53.69
  -2   3  -7 1093.12   55.34
  -2  -3  -7 1144.28   55.23
  -2  -3  -7 1119.86   52.97
  -2  -3  -7 1092.40   66.52
  -2   3  -7 1051.62   66.75
  -2   3  -8   20.21    3.85
  -2   3  -8   21.69    7.91
  -2  -3  -8   23.38    8.16
  -2   3  -8   26.48    4.15
   2   3   8   24.48    6.34
  -2  -3  -8   23.97    3.30
  -2   3  -8   21.47    4.36
  -2  -3  -8   20.09    4.62
  -2   3  -9   81.39    7.48
  -2  -3  -9   92.56   15.52
  -2   3  -9   54.44   12.68
  -2  -3  -9   73.59    6.11
  -2   3  -9   80.96    8.72
  -2  -3  -9   84.30    8.59
  -2   3  -9   81.18    7.28
  -2  -3 -10   -6.45    6.32
  -2   3 -10   -3.46    6.19
  -2   3 -10    0.66    3.07
  -2  -3 -10    2.55    3.19
  -2   3 -10    3.00    4.01
  -2  -3 -10    2.78    3.63
  -2  -3 -10    1.24    2.15
  -2   3 -11   61.56    7.36
  -2  -3 -11   48.32    6.52
  -2  -3 -11   60.84    6.06
  -2  -3 -12   -0.45    2.54
  -2   3 -13  280.21   14.28
   2   4 -14  141.43    7.89
   2  -4 -14  149.34    8.12
   2   4 -13    2.90    2.11
   2   4 -13   -1.66    2.17
   2  -4 -13    1.04    2.23
   2  -4 -13    0.42    2.17
   2  -4 -12   11.29    3.51
   2  -4 -12   13.63    3.48
   2  -4 -12   14.41    4.06
   2   4 -12   18.84    4.32
   2  -4 -12   13.94    3.41
   2   4 -12   22.76    3.65
   2  -4 -11    3.34    2.98
   2   4 -11   -0.57    2.94
   2  -4 -11    9.47    8.37
   2   4 -11   -3.34    5.97
   2   4 -11   -0.48    1.84
   2  -4 -11    1.31    2.91
   2  -4 -11    4.14    3.34
   2  -4 -11    0.77    2.89
   2   4 -11    4.08    3.45
   2   4 -10  187.22   13.68
   2  -4 -10  192.03   13.47
   2   4 -10  186.57   12.48
   2   4 -10  217.41   14.52
   2  -4 -10  190.78   13.03
   2   4 -10  188.86   11.93
   2   4 -10  194.82   12.99
   2  -4 -10  190.06   22.71
   2   4 -10  196.23   23.72
   2  -4 -10  200.61   12.88
   2  -4  -9    1.23    2.65
   2   4  -9    0.78    3.38
   2  -4  -9    5.45    5.77
   2   4  -9    8.79    6.63
   2   4  -9    1.22    2.45
   2   4  -9   -0.95    2.02
   2  -4  -9    1.20    2.75
   2  -4  -9    1.36    2.94
   2   4  -9    2.20    2.93
   2   4  -8   -1.35    2.81
   2  -4  -8   10.61    2.72
   2  -4  -8    2.29    3.67
   2   4  -8   -2.46    4.41
   2   4  -8    1.06    2.09
   2   4  -8    4.59    1.95
   2  -4  -8    2.18    2.27
   2   4  -8    0.62    2.43
   2  -4  -8    1.15    2.57
   2   4  -7    2.66    1.81
   2  -4  -7    4.55    2.33
   2   4  -7    4.56    2.10
   2  -4  -7    7.46    4.48
   2   4  -7    3.97    5.27
   2   4  -7    2.66    1.52
   2  -4  -7    5.39    2.19
   2  -4  -6   14.30    2.82
   2   4  -6   12.34    2.68
   2   4  -6   14.85    2.04
   2  -4  -6    8.94    4.18
   2  -4  -5   10.56    3.90
   2   4  -5    9.66    3.77
   2   4  -4 1520.42   76.70
   2  -4  -4 1584.38   76.61
   2   4  -3    0.71    1.80
   2  -4  -3    1.38    2.00
   2  -4  -2   10.85    2.85
   2   4  -2    7.92    2.85
   2  -4  -2   11.12    2.13
   2   4  -2   16.61    2.86
   2  -4  -2   14.54    3.03
  -2   4   1    0.99    1.09
   2   4  -1   -0.56    1.91
   2  -4  -1    0.55    1.80
   2   4   0    4.18    1.98
   2   4   1    6.49    2.67
   2   4   1   10.25    3.67
   2   4   2   68.83    6.75
  -2   4  -2   58.79    6.61
   2   4   2   77.32    8.15
   2   4   3   22.06    4.43
   2   4   3   30.28    5.55
  -2  -4  -3   37.62    5.73
  -2   4  -4   76.65    5.78
  -2   4  -4   80.62    8.89
  -2  -4  -4   61.04    8.15
   2   4   4   69.70    8.70
   2   4   4   81.94    8.56
  -2  -4  -5    3.53    4.24
  -2   4  -5   -1.88    4.52
  -2   4  -5    1.33    2.82
   2   4   5    1.28    2.50
   2   4   5   -1.20    2.54
  -2   4  -5    0.44    1.48
  -2  -4  -5    0.46    1.91
  -2   4  -5   -0.49    1.94
  -2  -4  -5   -1.38    2.92
   2   4   6    1.38    3.11
  -2   4  -6    1.27    1.83
  -2  -4  -6    3.36    2.42
  -2   4  -6   -1.21    2.41
   2   4   6   10.69    3.70
  -2  -4  -6    0.80    1.70
  -2   4  -6    2.26    4.04
  -2  -4  -6    6.36    5.09
  -2   4  -7   27.26    3.77
   2   4   7   24.95    5.97
  -2   4  -7   27.81    4.13
  -2   4  -7   21.36    8.35
  -2  -4  -7   25.03    7.84
  -2   4  -7   29.93    4.74
  -2  -4  -7   18.97    4.25
  -2   4  -8  147.31   10.66
  -2   4  -8  137.54   18.68
  -2  -4  -8  162.71   19.71
  -2   4  -8  154.04   10.45
   2   4   8  107.71   13.58
  -2  -4  -8  157.10   11.58
  -2   4  -8  142.77   11.68
  -2  -4  -8  151.09    9.58
  -2   4  -9    0.95    3.33
  -2  -4  -9    0.88    3.64
  -2  -4  -9    0.45    2.32
  -2   4  -9   -3.34    5.98
  -2   4  -9    3.39    3.52
  -2  -4  -9    3.10    6.08
  -2   4  -9    1.29    2.83
  -2  -4 -10  307.41   30.91
  -2   4 -10  296.18   31.14
  -2   4 -10  341.96   22.05
  -2  -4 -10  349.60   21.64
  -2  -4 -10  348.50   18.73
  -2   4 -10  375.25   20.58
  -2  -4 -10  365.17   20.28
  -2   4 -10  352.33   20.32
  -2  -4 -11    1.12    3.05
  -2   4 -11    2.65    3.16
  -2  -4 -11   -0.80    3.22
  -2  -4 -11    0.33    1.75
  -2  -4 -12  133.37    8.65
  -2   4 -12  123.12    8.32
  -2  -4 -12  114.67    8.77
  -2   4 -12  127.07    9.17
  -2   4 -13    1.16    1.35
   2  -5 -14    0.20    1.16
   2  -5 -13  439.74   23.28
   2  -5 -13  446.29   23.82
   2   5 -13  475.82   23.09
   2  -5 -12    1.66    2.54
   2   5 -12    2.05    2.38
   2  -5 -12    0.64    2.91
   2  -5 -12   -0.50    2.69
   2  -5 -12    1.01    2.49
   2   5 -12    3.37    3.13
   2   5 -11 1504.53   69.02
   2   5 -11 1429.89   70.34
   2  -5 -11 1473.81   70.09
   2   5 -11 1378.65   68.18
   2  -5 -11 1360.35   69.01
   2  -5 -11 1491.12   69.14
   2   5 -10    7.03    4.28
   2   5 -10   -0.59    2.67
   2  -5 -10   -1.30    2.65
   2  -5 -10    8.74    3.09
   2   5 -10   10.21    3.56
   2   5 -10    3.73    2.13
   2  -5 -10    6.89    3.65
   2   5 -10  -12.78    9.22
   2  -5 -10   -2.95    8.52
   2   5  -9   73.96    7.73
   2  -5  -9   64.45    6.28
   2   5  -9   71.06    6.41
   2  -5  -9   62.01    6.45
   2   5  -9   64.15    6.84
   2   5  -9   65.11    5.87
   2   5  -9   54.04    5.95
   2  -5  -9   62.60    6.35
   2   5  -9   72.25   13.20
   2  -5  -9   84.69   13.71
   2  -5  -8   15.70    5.74
   2   5  -8   12.25    5.94
   2  -5  -8   18.45    3.13
   2  -5  -8   19.18    3.73
   2   5  -8   28.29    4.23
   2   5  -8   14.09    3.18
   2   5  -8   13.80    2.79
   2   5  -8   21.35    3.45
   2   5  -8   22.22    2.93
   2  -5  -7  761.08   36.69
   2   5  -7  738.62   36.98
   2  -5  -7  740.28   36.66
   2   5  -7  734.45   35.77
   2  -5  -7  749.65   45.48
   2   5  -7  781.56   46.63
   2   5  -7  746.32   36.56
   2   5  -7  715.24   35.98
   2  -5  -7  793.92   37.73
   2   5  -7  692.61   37.15
   2   5  -6    0.84    1.17
   2  -5  -6   -1.47    3.12
   2   5  -6    1.56    3.96
   2   5  -6    1.01    1.38
   2  -5  -5 2419.84  109.07
   2   5  -5 2357.16  109.14
   2  -5  -5 2303.74  115.00
   2   5  -5 2273.35  115.31
   2  -5  -4   18.94    4.28
   2   5  -4   15.88    3.89
   2  -5  -3 1032.58   48.78
   2   5  -3  934.50   50.45
   2  -5  -3 1067.38   50.80
  -2   5   2   72.14    4.86
   2  -5  -2   79.10    6.40
   2   5  -2   72.49    6.18
   2   5  -2   58.57    6.29
   2  -5  -2   65.99    6.44
   2  -5  -2   74.54    4.98
   2   5  -1  657.98   35.21
   2  -5  -1  679.91   35.16
  -2   5   1  692.27   34.23
  -2   5   1  755.99   34.88
  -2   5   0   11.59    2.58
   2   5   0   11.64    3.01
  -2   5  -1 3841.63  173.45
   2   5   1 3807.59  176.41
   2   5   1 3578.25  173.34
  -2   5  -2   22.78    4.28
   2   5   2   25.74    5.70
   2   5   2   19.53    3.88
  -2   5  -3  547.44   30.80
   2   5   3  492.98   31.35
   2   5   3  536.28   29.92
   2   5   4   20.65    5.22
  -2   5  -4   15.98    2.70
  -2  -5  -4   22.05    5.34
   2   5   4   14.95    4.26
   2   5   5 2312.58  113.17
  -2   5  -5 2303.59  115.80
  -2  -5  -5 2257.85  114.91
  -2   5  -5 2115.78  105.76
   2   5   5 2449.44  111.95
  -2   5  -5 2229.07  106.04
  -2  -5  -5 2357.20  105.99
  -2   5  -5 2445.42  113.64
  -2   5  -6   21.66    3.81
  -2  -5  -6   17.17    3.55
   2   5   6   28.16    5.92
  -2   5  -6   22.16    3.18
   2   5   6   21.96    5.69
  -2  -5  -6   27.07    7.13
  -2   5  -6    6.70    5.13
  -2   5  -7  146.07   10.02
   2   5   7  170.96   15.53
  -2  -5  -7  148.87   10.91
  -2   5  -7  153.07   11.25
  -2   5  -7  155.47   10.65
  -2   5  -7  158.02   19.05
  -2  -5  -7  157.16   18.04
  -2   5  -8   20.18    4.44
  -2  -5  -8   26.99    4.82
  -2   5  -8   30.43    4.37
   2   5   8   18.44    5.30
  -2  -5  -8   23.11    3.45
  -2  -5  -8   22.34    8.13
  -2   5  -8   26.33    4.31
  -2   5  -8    9.02    6.88
  -2   5  -9  358.11   21.88
  -2  -5  -9  354.74   21.41
  -2   5  -9  332.53   32.27
  -2  -5  -9  325.27   30.98
  -2  -5  -9  342.73   18.81
  -2   5  -9  335.28   20.10
  -2   5  -9  361.03   20.15
  -2   5 -10    0.95    3.56
  -2  -5 -10    0.86    3.30
  -2  -5 -10    2.54    2.01
  -2   5 -10    2.66    2.76
  -2  -5 -10    2.98    6.74
  -2   5 -10    3.24    6.36
  -2  -5 -11  234.24   15.66
  -2   5 -11  269.43   16.83
  -2  -5 -11  236.23   13.26
  -2  -5 -11  253.93   14.83
  -2  -5 -12   -1.25    2.29
  -2   5 -12   -0.41    2.04
  -2  -5 -12    1.93    2.35
  -2   5 -12   -1.04    2.27
  -2   5 -13  445.08   23.04
  -2  -5 -13  522.66   23.53
   2  -6 -14  420.56   20.29
   2   6 -13    1.31    1.88
   2  -6 -13    0.38    2.10
   2  -6 -12  847.47   18.49
   2   6 -12  885.25   19.45
   2  -6 -12  903.67   18.09
   2   6 -12  869.62   16.59
   2  -6 -12  817.12   16.46
   2  -6 -11    4.83    3.17
   2   6 -11    5.20    3.09
   2   6 -11    1.03    2.36
   2   6 -11    2.78    2.71
   2  -6 -11    0.58    2.51
   2  -6 -11   -1.17    3.00
   2  -6 -10   83.18    7.22
   2   6 -10   70.15    6.73
   2   6 -10   73.71    6.62
   2  -6 -10   72.20    7.33
   2   6 -10   88.32    8.03
   2  -6 -10   74.26    7.21
   2  -6 -10   62.30   12.66
   2   6 -10   62.07   12.63
   2  -6  -9   21.88    4.87
   2  -6  -9   28.86    4.18
   2   6  -9   31.08    5.79
   2   6  -9   33.76    4.41
   2   6  -9   21.98    3.66
   2  -6  -9   29.95    4.61
   2   6  -9   25.34    4.35
   2  -6  -9   27.06    4.61
   2  -6  -9   23.09    8.30
   2   6  -9   19.89    8.89
   2   6  -8  498.64   24.96
   2  -6  -8  464.57   24.78
   2   6  -8  454.85   24.41
   2   6  -8  475.60   25.02
   2  -6  -8  469.23   24.96
   2   6  -8  475.43   25.46
   2   6  -8  480.70   35.34
   2  -6  -8  487.18   34.57
   2   6  -8  459.54   24.02
   2  -6  -8  458.20   25.80
   2  -6  -7   83.02    6.44
   2   6  -7   83.74    6.47
   2   6  -7   82.63    5.92
   2  -6  -7   81.55   11.28
   2   6  -7   81.09   11.99
   2   6  -7   75.65    6.81
   2  -6  -7   96.11    7.39
   2  -6  -7   79.59    7.12
   2   6  -7   81.54    7.19
   2   6  -7   81.70    6.12
   2   6  -7   74.73    6.31
   2   6  -7   81.32    6.64
   2  -6  -7   82.62    6.46
   2   6  -6 1493.96   67.78
   2   6  -6 1417.31   67.16
   2  -6  -6 1549.78   75.89
   2   6  -6 1386.88   75.52
   2  -6  -6 1455.83   67.81
   2   6  -6 1395.94   67.90
   2  -6  -5    1.16    2.78
   2   6  -5    1.22    2.93
   2  -6  -5    1.18    1.37
   2   6  -5   -0.31    1.38
   2  -6  -4 3994.03  182.97
   2   6  -4 3822.27  183.04
   2  -6  -3   44.73    5.62
   2   6  -3   47.69    5.61
   2  -6  -3   57.80    5.09
   2   6  -2  437.80   24.66
   2  -6  -2  490.54   24.95
  -2   6   2  473.64   23.19
   2  -6  -1    0.52    1.45
   2   6  -1    0.55    1.58
  -2   6   1    0.43    1.35
  -2   6   1   -0.55    1.47
  -2   6   0   68.67    6.13
   2   6   0   69.21    7.43
   2   6   1   14.12    4.64
  -2   6  -1   16.76    3.42
   2   6   1   13.93    3.99
  -2   6  -2  381.95   22.95
   2   6   2  369.51   22.38
   2   6   2  382.33   25.44
   2   6   3    7.57    2.84
   2   6   3    2.92    3.52
  -2   6  -3    4.42    3.32
  -2   6  -4 4198.31  200.10
  -2  -6  -4 4524.87  200.04
   2   6   4 4385.88  205.35
  -2  -6  -4 4409.70  207.49
   2   6   4 4417.67  208.82
   2   6   5   -1.70    3.60
  -2   6  -5    1.83    2.93
  -2  -6  -5    1.69    3.32
  -2   6  -5   -0.49    1.80
   2   6   5    1.27    2.88
  -2   6  -5    3.43    2.11
  -2  -6  -5    2.67    2.17
  -2   6  -6  677.03   34.58
   2   6   6  781.98   43.91
  -2   6  -6  644.64   44.11
  -2  -6  -6  680.11   44.06
  -2  -6  -6  716.97   35.44
   2   6   6  743.53   41.45
  -2   6  -6  673.81   35.48
  -2   6  -7    7.04    2.64
  -2   6  -7    3.61    3.17
  -2  -6  -7    7.91    2.99
  -2   6  -7    6.13    2.83
  -2  -6  -7    2.41    3.87
  -2   6  -7    2.60    4.65
   2   6   7    3.15    3.10
  -2   6  -8  339.92   19.88
  -2   6  -8  300.68   29.40
  -2  -6  -8  308.88   28.71
  -2  -6  -8  352.42   20.53
  -2   6  -8  351.86   20.94
  -2  -6  -9    6.21    2.56
  -2  -6  -9    2.92    5.23
  -2   6  -9    8.26    3.37
  -2   6  -9    9.17    4.03
  -2  -6  -9    9.99    4.07
  -2  -6 -10  280.00   15.38
  -2   6 -10  288.35   16.88
  -2   6 -10  259.56   17.94
  -2  -6 -10  268.91   17.70
  -2   6 -11    3.92    3.01
  -2  -6 -11    5.65    2.99
  -2  -6 -11   -0.53    2.61
  -2   6 -11    0.54    2.65
  -2  -6 -11   -0.33    1.64
  -2  -6 -12  620.28   31.96
  -2   6 -12  629.82   32.19
  -2  -6 -12  654.51   31.88
  -2   6 -12  663.46   31.88
  -2  -6 -13   -0.23    1.21
  -2   6 -13    0.21    1.10
   2  -7 -14    0.16    0.84
   2  -7 -13    9.66    2.25
   2   7 -13   11.69    2.33
   2  -7 -12   21.56    3.58
   2   7 -12   16.20    3.47
   2   7 -12   18.33    3.38
   2  -7 -12   18.78    3.46
   2  -7 -12   12.96    3.32
   2  -7 -11  318.45   18.16
   2  -7 -11  303.68   19.16
   2   7 -11  328.93   18.18
   2  -7 -11  330.60   18.73
   2  -7 -11  349.80   19.15
   2   7 -11  321.63   19.19
   2   7 -11  319.57   18.28
   2  -7 -10    7.28    3.18
   2   7 -10    7.31    3.05
   2  -7 -10    2.70    5.30
   2   7 -10    2.98    5.34
   2   7 -10    2.35    2.91
   2  -7 -10    5.27    2.53
   2  -7 -10    3.21    3.13
   2   7 -10    4.66    2.88
   2   7  -9  109.76    8.41
   2  -7  -9  118.35    8.72
   2   7  -9  114.09    8.61
   2  -7  -9  100.74    9.49
   2   7  -9  109.11    8.28
   2   7  -9  108.08   16.19
   2  -7  -9  109.37   15.35
   2  -7  -9  121.33    9.17
   2  -7  -9  108.41    8.74
   2   7  -9  127.42    9.47
   2  -7  -8   22.27    4.47
   2   7  -8   21.59    3.29
   2   7  -8   22.66    3.62
   2  -7  -8   17.70    3.38
   2   7  -8   21.41    4.38
   2  -7  -8   21.38    3.76
   2   7  -8   21.39    3.76
   2  -7  -8   21.44    7.13
   2   7  -8   14.33    6.40
   2   7  -8   15.26    3.23
   2  -7  -7  187.26   12.49
   2   7  -7  184.85   12.63
   2  -7  -7  185.00   11.49
   2   7  -7  187.42   11.61
   2   7  -7  213.55   11.78
   2  -7  -7  188.62   11.47
   2   7  -7  177.59   11.56
   2   7  -7  201.59   18.90
   2  -7  -7  171.52   17.25
   2   7  -7  191.01   11.43
   2   7  -6   16.14    2.86
   2   7  -6   19.87    3.45
   2  -7  -6   21.79    5.65
   2   7  -6   21.78    5.91
   2   7  -6   19.00    2.87
   2  -7  -6   19.73    2.73
   2   7  -6   21.97    2.99
   2  -7  -6   21.56    3.61
   2   7  -5  487.79   23.98
   2  -7  -5  482.84   23.64
   2   7  -5  456.50   23.65
   2   7  -5  501.86   29.57
   2  -7  -5  484.78   29.11
   2   7  -4    0.30    1.09
   2  -7  -4    0.90    2.03
   2   7  -4   -1.88    2.49
   2  -7  -4   -0.71    1.79
   2  -7  -3   89.13    8.02
   2   7  -3  100.74    8.30
   2  -7  -3   95.05    6.24
   2  -7  -3  108.01    7.83
  -2   7   2   11.74    3.11
  -2   7   1  589.55   29.44
  -2   7   1  560.64   27.97
   2   7  -1  493.88   27.70
   2  -7  -1  544.47   27.95
   2   7   0   10.11    3.54
  -2   7   0    4.40    2.03
   2   7   1 2399.04  114.78
  -2   7  -1 2333.63  112.69
   2   7   1 2414.10  117.75
  -2   7  -2    1.95    2.92
   2   7   2    1.56    3.31
   2   7   3   10.88    3.60
   2   7   3   19.96    6.28
  -2   7  -3   21.41    5.17
  -2  -7  -4   73.94    9.20
  -2   7  -4   53.06    8.65
  -2   7  -4   60.07    5.26
  -2  -7  -4   73.60    5.42
   2   7   4   81.58    9.00
   2   7   4   82.00   10.64
  -2  -7  -5  373.82   18.82
  -2   7  -5  325.69   18.75
   2   7   5  341.92   23.40
  -2   7  -5  330.55   25.55
  -2  -7  -5  359.64   25.53
   2   7   5  325.33   25.94
  -2  -7  -6   68.73    5.94
   2   7   6   59.85    8.70
   2   7   6   54.99   10.02
  -2   7  -6   65.35   10.81
  -2  -7  -6   76.37   11.58
  -2   7  -6   50.08    5.73
   2   7   7  511.20   36.08
  -2   7  -7  513.05   28.67
  -2  -7  -7  561.73   28.63
  -2   7  -7  441.16   36.61
  -2  -7  -7  625.59   39.71
  -2   7  -8   30.34    4.68
  -2  -7  -8   21.34    7.85
  -2   7  -8   31.67    9.34
  -2   7  -8   39.48    5.76
  -2  -7  -8   41.86    5.47
  -2  -7  -9  561.22   28.73
  -2   7  -9  586.88   30.25
  -2  -7  -9  536.26   41.17
  -2   7  -9  546.77   42.61
  -2   7  -9  552.15   31.18
  -2  -7  -9  550.45   30.67
  -2  -7 -10    3.40    2.48
  -2   7 -10    3.88    2.98
  -2   7 -10    7.72    3.82
  -2  -7 -10   -2.32    3.22
  -2   7 -11  127.57    8.88
  -2  -7 -11  111.66    8.54
  -2  -7 -11  116.73    7.42
  -2   7 -12   13.04    2.61
  -2  -7 -12    8.52    2.44
  -2  -7 -12    6.66    2.07
  -2   7 -12    7.42    2.11
  -2   7 -13   36.71    2.94
  -2  -7 -13   41.06    3.14
   2  -8 -13    6.22    2.03
   2  -8 -13    5.69    1.93
   2   8 -12 1002.48   16.95
   2  -8 -12  999.65   17.43
   2  -8 -11    8.86    2.72
   2   8 -11    4.50    2.19
   2   8 -11    4.22    2.40
   2   8 -11   -2.65    2.88
   2  -8 -11    2.27    2.95
   2  -8 -11    3.72    2.73
   2  -8 -10  353.29   19.81
   2   8 -10  351.07   20.07
   2   8 -10  379.27   20.37
   2  -8 -10  370.67   20.46
   2   8 -10  366.69   20.79
   2  -8 -10  365.94   20.69
   2  -8 -10  324.64   29.46
   2  -8  -9    2.39    4.28
   2   8  -9   -2.67    4.28
   2   8  -9    0.56    2.20
   2  -8  -9    3.53    2.79
   2   8  -9    1.97    2.47
   2   8  -9    0.59    2.55
   2  -8  -9    1.10    2.15
   2   8  -9    2.38    2.34
   2  -8  -9    3.30    3.61
   2   8  -8  755.46   50.44
   2  -8  -8  741.51   49.08
   2   8  -8  808.15   40.69
   2   8  -8  829.70   40.79
   2  -8  -8  865.26   40.77
   2   8  -8  816.17   40.95
   2  -8  -8  795.21   40.41
   2   8  -8  835.82   40.92
   2  -8  -8  815.65   42.09
   2   8  -7   -0.47    1.87
   2   8  -7    0.68    2.56
   2   8  -7    2.50    2.59
   2  -8  -7    2.81    1.98
   2   8  -7    1.89    1.97
   2  -8  -7    1.32    1.86
   2   8  -7    3.35    1.91
   2  -8  -7    7.05    4.46
   2   8  -7   -1.92    5.09
   2  -8  -7    1.28    2.47
   2   8  -6 2243.06  107.74
   2  -8  -6 2349.83  107.81
   2   8  -6 2317.68  106.83
   2   8  -6 2348.73  106.91
   2  -8  -6 2377.22  106.42
   2   8  -6 2192.92  106.41
   2  -8  -6 2366.97  114.19
   2   8  -6 2230.11  114.18
   2   8  -6 2270.99  106.65
   2   8  -5   58.37    4.54
   2  -8  -5   56.69    4.43
   2  -8  -5   65.63    8.15
   2   8  -5   60.14    7.97
   2   8  -4 3564.45  168.77
   2   8  -4 3604.05  172.84
   2  -8  -4 3905.80  173.22
   2  -8  -4 3880.37  172.24
   2  -8  -3    0.35    0.93
   2  -8  -3   -0.66    1.82
   2  -8  -3   -0.69    1.75
   2   8  -3   -0.69    1.83
  -2   8   2 2449.07  109.43
   2   8  -2 2217.44  104.51
  -2   8   1    8.07    2.84
   2   8  -1    8.06    1.84
   2   8   0 1102.02   52.53
  -2   8   0 1189.96   55.61
   2  -8   0 1150.46   53.61
   2   8   0 1057.41   53.54
  -2   8  -1   64.62    4.65
  -2   8  -1   54.06    6.64
   2   8   1   62.90    9.73
  -2   8  -2 1502.37   75.69
   2   8   2 1530.42   80.53
  -2   8  -3   12.41    3.86
  -2  -8  -3   10.13    3.57
   2   8   3    9.37    4.77
  -2   8  -4 1798.85   85.51
  -2  -8  -4 1854.78   85.24
  -2   8  -4 1821.09   92.49
  -2  -8  -4 1875.19   92.01
   2   8   4 1863.89   96.74
  -2   8  -5   28.27    6.86
  -2  -8  -5   28.96    6.52
   2   8   5   26.12    5.53
  -2  -8  -5   18.97    6.70
   2   8   5   25.60    7.31
  -2   8  -5   19.05    3.18
  -2  -8  -5   23.83    3.23
  -2   8  -6 3082.94  151.17
   2   8   6 3210.45  157.14
  -2  -8  -6 3437.06  151.20
  -2   8  -6 3059.29  161.14
  -2  -8  -6 3187.85  160.62
  -2  -8  -6 3533.77  162.22
   2   8   6 3364.15  163.30
  -2  -8  -7    6.91    5.25
  -2   8  -7   17.47    6.66
  -2   8  -7   12.75    3.28
  -2  -8  -7   21.68    3.95
   2   8   7   16.32    6.50
  -2   8  -8  267.30   17.02
  -2   8  -8  307.44   17.66
  -2   8  -8  246.34   17.29
  -2  -8  -8  319.61   27.09
  -2   8  -8  247.85   25.42
  -2  -8  -8  305.21   17.72
  -2  -8  -9    2.46    2.55
  -2   8  -9   -0.70    2.68
  -2  -8  -9   -2.67    4.28
  -2   8  -9    2.88    5.65
  -2   8  -9   -0.85    3.19
  -2  -8  -9   -0.77    3.14
  -2  -8 -10 1442.39   66.01
  -2   8 -10 1471.89   67.65
  -2   8 -10 1288.23   68.05
  -2  -8 -10 1336.15   67.73
  -2  -8 -11   10.65    2.79
  -2   8 -11   11.33    2.87
  -2  -8 -11   10.47    2.28
  -2   8 -11   15.52    3.30
  -2  -8 -11   13.03    3.39
  -2  -8 -12  207.44   11.45
  -2   8 -12  192.34   11.38
  -2  -8 -13    0.51    0.88
   2  -9 -13   58.51    4.34
   2  -9 -13   53.82    4.40
   2   9 -12    5.63    2.53
   2  -9 -12   12.06    2.98
   2  -9 -12    3.38    2.41
   2  -9 -11  165.33   12.78
   2   9 -11  170.44   11.64
   2  -9 -11  192.04   12.19
   2  -9 -11  199.82   12.09
   2   9 -11  186.86   12.18
   2   9 -11  209.69   12.17
   2   9 -10    4.40    2.58
   2  -9 -10   14.15    3.85
   2   9 -10   12.17    3.63
   2  -9 -10   11.55    3.24
   2   9 -10   18.43    3.70
   2   9 -10   17.74    3.67
   2  -9  -9  313.50   19.44
   2   9  -9  295.10   17.84
   2   9  -9  287.03   26.84
   2   9  -9  335.82   18.32
   2  -9  -9  315.28   17.79
   2   9  -9  301.68   18.01
   2   9  -9  314.60   18.20
   2  -9  -8    4.50    2.88
   2   9  -8    5.82    2.47
   2   9  -8    4.44    3.98
   2  -9  -8   12.21    5.40
   2  -9  -8    4.01    2.27
   2   9  -8    1.73    2.81
   2  -9  -8    4.02    2.24
   2   9  -8    2.19    2.29
   2   9  -8    0.58    2.27
   2   9  -7  282.58   15.90
   2  -9  -7  266.67   16.72
   2   9  -7  273.70   15.99
   2   9  -7  293.13   16.12
   2  -9  -7  273.51   15.61
   2   9  -7  282.55   15.91
   2  -9  -7  295.07   15.61
   2   9  -7  250.44   15.31
   2  -9  -7  280.59   22.18
   2   9  -7  267.33   22.35
   2   9  -6    4.63    2.07
   2  -9  -6    2.90    2.59
   2   9  -6    1.86    1.53
   2  -9  -6    3.58    1.84
   2   9  -6    4.55    1.93
   2  -9  -6    4.81    2.02
   2   9  -6    2.68    1.72
   2   9  -6    7.41    3.56
   2  -9  -6    7.16    4.13
   2   9  -5   98.68    6.64
   2   9  -5   73.25    5.43
   2   9  -5   82.73    6.04
   2   9  -5   81.18    6.13
   2   9  -5   82.75    9.17
   2  -9  -5   80.28    9.09
   2  -9  -4   98.27    9.31
   2   9  -4  106.91    9.56
   2   9  -4  116.43    7.31
   2  -9  -4   86.27    8.88
   2  -9  -3  410.55   21.43
  -2   9   3  429.96   24.94
   2  -9  -3  381.28   21.44
   2   9  -3  364.70   18.99
  -2   9   2   49.43    6.85
   2   9  -2   59.20    4.72
  -2   9   1   11.37    3.59
  -2   9   0    2.39    1.35
   2   9   0   -0.70    1.52
   2   9   0    1.88    4.52
   2   9   0    0.33    1.06
  -2   9  -1  496.79   24.76
   2   9   2    2.00    4.53
  -2  -9  -2    4.75    2.11
  -2   9  -2    2.26    2.00
   2   9   3   18.91    7.54
  -2   9  -3   11.29    3.34
  -2  -9  -3   15.77    3.76
  -2   9  -4    4.03    3.23
  -2  -9  -4    7.30    3.24
  -2   9  -4    4.13    1.57
   2   9   4   11.11    5.90
  -2  -9  -5 1378.42   71.68
  -2   9  -5 1239.38   61.92
   2   9   5 1449.11   75.79
  -2   9  -5 1311.85   70.10
  -2  -9  -5 1359.21   69.62
  -2  -9  -6    3.77    3.37
  -2   9  -6    2.06    3.68
  -2  -9  -6    2.04    4.01
  -2   9  -6    0.59    2.20
  -2  -9  -6    4.16    2.43
   2   9   6    2.49    4.89
  -2   9  -7   43.38    9.65
  -2  -9  -7   37.75    8.93
  -2   9  -7   41.23    5.41
  -2  -9  -7   51.24    5.52
   2   9   7   33.23    9.13
  -2   9  -7   45.89    5.71
  -2   9  -8    2.21    3.44
  -2   9  -8    3.91    2.73
  -2  -9  -8    2.82    2.77
  -2  -9  -8    2.46    4.40
  -2   9  -8   10.61    6.37
  -2   9  -8    5.05    3.17
  -2  -9  -9   59.72    5.64
  -2   9  -9   55.65    6.69
  -2  -9  -9   58.93    6.49
  -2   9  -9   54.58    6.32
  -2  -9 -10    6.20    2.53
  -2   9 -10    4.25    3.01
  -2  -9 -10    7.03    2.95
  -2   9 -10    5.51    2.65
  -2  -9 -11   12.80    2.28
  -2   9 -11    8.95    2.79
  -2  -9 -11    7.26    2.67
  -2  -9 -12    0.92    1.67
  -2   9 -12    5.39    1.93
   2 -10 -13    1.18    1.36
   2 -10 -13    0.75    1.37
   2 -10 -12   32.35    3.85
   2 -10 -12   28.18    3.85
   2 -10 -11   24.56    4.55
   2  10 -11   12.32    3.30
   2  10 -11   12.38    3.14
   2 -10 -11   15.83    3.72
   2  10 -10  466.73   24.12
   2  10 -10  424.52   23.50
   2 -10 -10  448.39   24.21
   2  10 -10  392.23   23.23
   2  10 -10  470.81   23.92
   2  10  -9    3.76    2.88
   2  10  -9    0.64    2.81
   2  10  -9   -1.82    2.83
   2 -10  -9    2.09    2.18
   2  10  -9   -1.13    2.59
   2 -10  -9    4.09    3.53
   2 -10  -8   28.12    4.72
   2  10  -8   22.96    3.95
   2  10  -8   18.75    3.63
   2  10  -8   22.65    6.45
   2  10  -8   21.52    3.93
   2  10  -8   16.27    3.10
   2  10  -8   18.24    3.88
   2  10  -7    1.73    2.77
   2 -10  -7    3.42    3.15
   2  10  -7   -2.89    2.49
   2  10  -7    2.14    2.19
   2  10  -7    0.55    2.30
   2  10  -7   -0.86    1.79
   2  10  -7    1.64    2.27
   2  10  -6 1200.28   57.28
   2 -10  -6 1196.19   57.95
   2  10  -6 1211.25   57.40
   2  10  -6 1152.93   57.07
   2  10  -6 1182.82   57.08
   2  10  -6 1093.01   62.44
   2 -10  -6 1308.97   64.05
   2  10  -5   19.47    3.09
   2 -10  -5   23.60    4.93
   2  10  -5   18.62    4.31
   2  10  -5   24.00    3.23
   2  10  -5   19.94    3.09
   2  10  -4  520.55   26.43
  -2  10   4  509.84   32.88
   2  10  -4  471.64   28.37
   2 -10  -4  578.30   30.19
   2 -10  -3   17.75    3.78
   2  10  -3   17.23    2.81
  -2  10   3   13.55    4.79
  -2  10   2  538.56   26.09
   2  10  -2  502.04   26.54
  -2  10   1    4.12    1.53
  -2  10   1    4.39    3.29
   2  10   0 1222.82   65.36
   2  10   0 1058.20   53.03
  -2  10   0 1152.63   52.85
   2  10   1    8.05    2.01
  -2  10  -1    6.29    2.01
  -2  10  -2  551.91   30.35
   2  10   2  519.89   35.95
  -2  10  -2  464.10   25.87
   2  10   3   53.75   10.64
  -2  10  -3   47.04    6.07
   2  10   4   56.47   11.31
  -2  10  -4   67.49    8.35
   2  10   5    7.77    5.49
  -2 -10  -5    3.88    4.12
  -2  10  -5    6.25    3.55
   2  10   6  260.46   24.58
  -2  10  -6  214.65   20.28
  -2  10  -6  220.78   13.98
  -2  10  -7  131.12    9.88
  -2  10  -7   99.30   13.85
   2  10   7  135.18   17.69
  -2 -10  -7  125.98   15.72
  -2  10  -7   96.09    8.57
  -2  10  -8  646.00   31.97
  -2  10  -8  619.12   32.32
  -2  10  -8  611.44   32.00
  -2  10  -8  523.37   31.34
  -2  10  -9   -0.69    2.75
  -2  10  -9   -1.43    3.08
  -2  10  -9   -0.67    3.03
  -2  10 -10   44.25    5.31
  -2 -10 -10   47.75    4.57
  -2 -10 -11    3.50    1.70
  -2 -10 -11    7.54    2.45
  -2  10 -12  231.44   12.40
  -2 -10 -12  224.40   12.12
   2 -11 -13  294.60   14.71
   2 -11 -12    8.05    2.41
   2 -11 -12    2.46    1.92
   2 -11 -11  463.28   26.59
   2 -11 -11  506.10   25.64
   2  11 -10   -2.24    2.69
   2  11 -10   -1.23    2.74
   2  11 -10    0.58    2.41
   2 -11 -10   -1.22    3.18
   2  11  -9  556.44   27.98
   2  11  -9  510.49   27.63
   2 -11  -9  509.02   28.57
   2  11  -9  508.06   27.33
   2  11  -8   10.13    3.24
   2  11  -8    7.87    2.94
   2  11  -8    3.97    2.38
   2  11  -8    9.25    3.47
   2  11  -8    6.33    2.97
   2 -11  -8   11.44    3.73
   2 -11  -7  988.87   50.69
   2  11  -7 1044.79   50.17
   2  11  -7 1009.93   50.28
   2  11  -7 1030.50   50.05
   2  11  -7 1009.20   50.03
   2 -11  -6   15.70    3.78
   2  11  -6   14.71    3.29
   2  11  -6   21.48    3.69
   2  11  -6   18.69    3.36
   2  11  -6   16.77    3.23
   2  11  -5 1080.76   49.76
   2 -11  -5  987.40   53.67
   2  11  -5 1016.45   49.88
   2  11  -5 1007.59   49.63
  -2  11   5  993.82   58.34
   2 -11  -4   18.38    4.22
   2  11  -4   28.51    3.62
  -2  11   4   21.92    5.82
   2 -11  -3  626.50   36.84
   2  11  -3  690.31   34.34
  -2  11   3  708.91   33.42
  -2  11   3  742.52   41.66
   2  11  -3  675.20   33.95
  -2  11   2   44.94    3.86
   2  11  -2   35.36    4.01
  -2  11   2   39.55    6.88
  -2  11   1 1068.78   49.76
  -2  11   1  963.16   55.07
  -2  11   0   -0.76    1.40
   2  11   0   -1.74    1.71
   2  11   0   -2.38    5.03
   2  11   1  969.81   47.11
  -2  11  -1  975.37   46.90
   2  11   2    1.84    1.92
   2  11   2    2.50    5.65
  -2  11  -2    1.31    2.10
  -2  11  -3  853.21   42.93
   2  11   3  928.38   43.84
  -2  11  -4    2.23    1.79
   2  11   4   -2.70    5.30
   2  11   4    3.50    1.84
  -2 -11  -5 1458.57   84.53
  -2  11  -5 1589.49   75.27
   2  11   5 1662.68   90.67
   2  11   5 1597.61   75.26
  -2 -11  -6    2.21    4.33
  -2  11  -6    1.80    2.75
   2  11   6    2.93    5.75
   2  11   6    1.08    1.88
  -2 -11  -7  271.28   25.00
   2  11   7  290.55   28.30
  -2  11  -7  291.64   17.67
  -2  11  -7  311.17   18.63
  -2  11  -8    6.02    3.62
  -2  11  -8    2.93    2.81
  -2  11  -8    0.69    2.69
  -2  11  -9  215.97   14.56
  -2  11  -9  254.05   15.15
  -2 -11 -10    0.76    1.95
  -2  11 -10   -0.54    2.17
  -2 -11 -11  259.07   14.46
  -2 -11 -11  256.22   13.53
  -2  11 -11  279.08   14.55
  -2  11 -12    0.27    1.29
  -2 -11 -12    0.22    1.29
   2 -12 -12   95.98    6.37
   2 -12 -12   95.52    6.54
   2 -12 -11    0.91    2.38
   2 -12 -11    1.34    2.78
   2  12 -10    7.84    2.98
   2  12 -10    0.58    2.18
   2 -12 -10    5.22    3.22
   2  12  -9    7.35    3.11
   2  12  -9   13.89    3.77
   2 -12  -9   14.00    4.06
   2 -12  -8  235.56   15.78
   2  12  -8  238.66   15.78
   2  12  -8  252.64   15.36
   2  12  -8  278.60   15.98
   2  12  -8  238.69   14.69
   2 -12  -7   36.94    5.18
   2  12  -7   24.51    4.11
   2  12  -7   24.28    3.99
  -2  12   7   14.89    6.68
   2  12  -7   23.80    4.22
   2 -12  -6  367.78   21.15
   2  12  -6  386.19   21.14
   2  12  -6  362.70   20.55
   2  12  -6  385.23   20.99
  -2  12   6  359.20   28.99
   2  12  -5   12.92    2.88
   2  12  -5   14.46    3.27
  -2  12   5   22.40    6.75
   2 -12  -4  126.50   12.22
   2  12  -4  169.98   10.57
  -2  12   4  146.20   15.63
   2 -12  -3   20.26    4.37
  -2  12   3   19.54    2.74
   2  12  -3   22.27    3.37
  -2  12   3   20.25    6.10
   2  12  -3   15.10    2.88
   2  12  -2  322.82   18.15
  -2  12   2  352.95   17.60
  -2  12   2  335.93   23.91
   2  12  -2  305.17   17.68
  -2  12   1    1.99    1.65
  -2  12   0   78.00    5.87
   2  12   0   64.86    5.85
   2  12   0   76.53   13.41
  -2  12  -1   -1.37    1.93
   2  12   1    1.48    1.94
   2  12   2  124.23    8.72
   2  12   2  146.89   18.06
  -2  12  -2  111.43   12.27
  -2  12  -3    4.20    1.83
   2  12   3    8.36    2.52
   2  12   3    5.72    6.48
  -2  12  -4  641.88   32.42
   2  12   4  625.02   45.87
   2  12   4  646.49   32.81
  -2 -12  -5    4.28    4.84
  -2  12  -5   -0.56    2.13
   2  12   5   -3.07    5.49
   2  12   5    0.56    2.09
  -2 -12  -6 1375.65   80.34
  -2  12  -6 1457.00   70.45
   2  12   6 1460.12   86.04
   2  12   6 1488.49   70.00
  -2 -12  -7   -2.32    4.54
   2  12   7   -3.08    6.04
  -2  12  -7    4.73    3.11
  -2  12  -7    3.98    3.18
  -2  12  -8    0.75    2.82
  -2  12  -8    2.16    3.22
  -2  12  -8    6.17    3.25
  -2  12  -9    0.63    2.54
  -2  12  -9    1.92    3.08
  -2 -12 -10  156.88    9.78
  -2  12 -10  174.65   11.07
  -2  12 -10  168.77   10.72
  -2 -12 -11    1.33    1.90
  -2 -12 -11    1.67    1.22
  -2  12 -11    1.35    1.80
  -2 -12 -12   14.90    1.79
  -2  12 -12   17.47    2.01
   2 -13 -12   10.66    2.05
   2 -13 -12   11.44    2.11
   2 -13 -11  126.67    9.56
   2 -13 -11  126.09    8.46
   2  13 -10    1.14    2.20
   2 -13  -9  760.83   40.56
   2  13  -9  812.50   40.32
   2  13  -9  787.90   40.15
   2  13  -8    2.14    2.80
   2  13  -8    0.80    2.63
   2  13  -8   -0.58    1.90
   2  13  -8    1.33    2.92
  -2  13   8   -2.62    3.63
   2 -13  -8    0.74    2.85
   2 -13  -7  286.08   18.00
   2  13  -7  292.75   17.72
   2  13  -7  296.86   18.11
   2  13  -7  339.48   18.18
  -2  13   7  263.93   25.74
   2 -13  -6    0.66    2.71
   2  13  -6    1.31    2.67
   2  13  -6   -1.90    2.44
  -2  13   6   -2.37    3.28
   2  13  -6   -0.60    2.19
  -2  13   5 1789.85   97.82
   2  13  -5 1859.60   87.55
   2  13  -4   -0.59    2.21
  -2  13   4    8.06    4.84
   2 -13  -3  657.72   37.95
   2  13  -3  700.97   35.25
  -2  13   3  711.00   34.07
  -2  13   3  755.57   43.76
   2  13  -3  652.16   34.64
   2  13  -2    0.56    1.96
  -2  13   2    0.42    1.76
  -2  13   2    1.71    3.35
   2  13  -2    1.50    1.84
   2  13  -1 2283.82  108.91
   2  13  -1 2266.26  109.24
  -2  13   1 2451.30  108.83
   2  13   0    6.42    2.29
  -2  13   0    7.90    2.40
  -2  13  -1   52.15    9.35
   2  13   1   44.81   11.38
   2  13   1   46.00    4.99
  -2  13  -1   44.99    4.69
   2  13   1   36.85    4.53
  -2  13  -2   32.63    3.69
   2  13   2   31.32    4.12
   2  13   2   29.80    4.15
   2  13   3 1976.12   93.62
   2  13   3 2013.84  110.73
  -2  13  -3 1987.48   92.87
   2  13   4   62.25    5.85
  -2  13  -4   59.95    5.73
   2  13   4   54.78   12.66
  -2 -13  -5  380.17   30.04
   2  13   5  402.84   21.53
  -2  13  -5  387.56   21.51
   2  13   5  316.87   32.64
  -2 -13  -6  116.60   15.58
  -2  13  -6  125.99   10.37
   2  13   6  126.12    9.14
  -2  13  -6  135.76    9.79
   2  13   6   89.56   16.90
  -2  13  -7 1089.40   53.92
  -2  13  -7 1113.36   54.76
  -2 -13  -7  998.21   63.01
  -2  13  -8  119.29    9.38
  -2  13  -8  127.23   10.00
  -2  13  -8  109.57    9.24
  -2  13  -9  401.04   21.82
  -2  13  -9  376.80   21.40
  -2 -13 -10   17.37    2.62
  -2  13 -10   20.46    3.70
  -2  13 -10   12.87    3.27
  -2  13 -10   19.73    3.02
  -2 -13 -11  562.52   25.48
  -2  13 -11  526.97   25.41
  -2 -13 -11  486.95   24.42
   2 -14 -12  532.91   25.80
   2 -14 -12  540.62   25.73
   2 -14 -11    5.25    2.30
   2 -14 -11    3.24    2.29
   2  14 -10  688.44   33.90
   2 -14 -10  630.55   35.16
   2  14  -9   -0.65    2.49
   2  14  -9    2.70    2.91
   2  14  -8  426.00   22.91
   2  14  -8  361.22   22.63
   2 -14  -8  410.73   22.71
  -2  14   8  325.09   33.94
  -2  14   8  379.66   31.74
   2  14  -7    3.65    2.98
   2 -14  -7   -0.71    3.15
   2  14  -7   -0.65    2.72
   2  14  -7   -0.64    2.36
  -2  14   7    2.56    4.10
   2 -14  -6 1406.93   68.77
   2  14  -6 1429.65   68.78
  -2  14   6 1335.64   79.36
   2  14  -6 1446.90   69.10
  -2  14   5   -4.62    4.14
   2  14  -4  803.89   41.13
  -2  14   4  796.65   50.13
   2  14  -4  823.27   41.03
  -2  14   3    8.09    2.38
   2  14  -3    4.41    2.49
  -2  14   3   14.15    5.84
   2  14  -3    6.98    2.53
  -2  14   2  792.04   38.70
   2  14  -2  801.66   39.92
  -2  14   2  755.68   47.04
   2  14  -2  768.40   39.25
  -2  14   1   21.66    3.31
   2  14  -1   16.77    3.24
  -2  14   0 1283.84   61.76
   2  14   0 1282.65   62.32
  -2  14   0 1206.99   74.50
   2  14   0 1315.66   62.57
   2  14   1    7.35    4.80
   2  14   1    1.18    1.83
  -2  14  -1    4.56    3.65
   2  14   1    3.28    6.43
   2  14   1   -0.60    2.14
   2  14   2  730.88   36.92
  -2  14  -2  734.13   35.88
   2  14   2  701.92   36.85
   2  14   2  756.52   49.12
   2  14   3   -2.77    4.43
   2  14   3   -3.41    6.11
   2  14   3    1.21    2.10
  -2  14  -3    0.49    2.04
   2  14   4 3185.04  169.61
  -2  14  -4 3232.88  150.28
   2  14   4 3258.52  150.65
  -2 -14  -5    4.51    4.04
   2  14   5    3.51    6.88
  -2  14  -5    0.62    2.38
   2  14   5    0.60    2.20
  -2 -14  -6 1134.74   71.59
  -2  14  -6 1303.96   62.84
  -2  14  -6 1265.97   63.79
   2  14   6 1340.39   62.12
   2  14   6 1176.35   78.07
  -2  14  -7    4.12    3.18
  -2  14  -7   13.53    3.89
  -2  14  -8  884.88   42.95
  -2  14  -8  774.32   42.32
  -2  14  -8  890.28   43.40
  -2  14  -9   -2.10    2.34
  -2  14  -9   -0.57    2.84
  -2 -14 -10   40.04    3.74
  -2  14 -10   50.27    4.86
  -2  14 -10   43.87    4.52
  -2  14 -10   45.92    4.20
  -2  14 -11    2.91    1.61
  -2 -14 -11   -0.23    1.23
  -2  14 -11    0.49    1.19
   2 -15 -12   18.20    1.83
   2 -15 -11   96.38    6.30
   2 -15 -10    7.85    3.64
   2  15 -10   11.24    2.90
   2  15  -9  135.14    8.16
   2  15  -9    6.78    2.48
   2 -15  -8    4.10    3.51
   2  15  -8    4.04    3.50
   2  15  -8    9.58    3.74
   2  15  -7   22.72    3.96
   2 -15  -7   22.78    4.48
  -2  15   7   22.40   10.40
  -2  15   7   30.48    9.15
   2  15  -7   21.16    4.75
   2  15  -7   28.54    4.85
   2 -15  -6    2.69    2.85
   2  15  -6    4.12    2.75
  -2  15   6    2.50    5.29
   2  15  -6    2.92    2.81
  -2  15   5   64.94   11.60
   2  15  -4   11.02    3.34
  -2  15   4    4.59    4.88
   2  15  -4   11.30    3.18
   2  15  -3   35.73    5.11
  -2  15   3   35.39    4.26
  -2  15   3   30.43    7.75
   2  15  -3   36.93    5.09
  -2  15   2   24.67    3.58
   2  15  -2   19.16    3.53
  -2  15   1    9.88    2.79
   2  15  -1    7.13    2.59
  -2  15   0    3.27    2.23
  -2  15   0    2.91    5.20
   2  15   0    2.01    2.83
   2  15   1  125.51   16.91
   2  15   1  118.05    9.25
  -2  15  -1  123.98   16.27
  -2  15  -1  129.12    8.70
   2  15   1  114.92    9.26
   2  15   2   62.51    6.22
   2  15   2   64.99    6.48
   2  15   2   50.42   11.77
   2  15   3   35.50   10.12
  -2  15  -3   22.35    3.78
   2  15   3   31.14    4.45
   2  15   3   33.05   11.06
   2  15   4   34.20    9.84
  -2  15  -4   53.94    5.52
  -2 -15  -4   28.74    8.16
   2  15   4   46.54    5.37
   2  15   4   33.25   10.43
   2  15   5   -3.21    5.74
   2  15   5   -3.67    7.19
  -2 -15  -5    2.26    4.43
  -2  15  -5    7.02    3.35
   2  15   5    2.44    2.34
  -2 -15  -6   17.71    6.97
  -2  15  -6   27.68    4.56
  -2  15  -6   29.77    5.40
   2  15   6   29.79    4.24
  -2  15  -7   92.83    8.65
  -2  15  -7  107.32    8.67
  -2  15  -8    0.62    2.95
  -2  15  -8    0.66    2.48
  -2  15  -8    1.21    2.51
  -2  15  -9   96.84    7.55
  -2  15  -9  120.28    8.63
  -2  15  -9  111.78    8.27
  -2 -15 -10    9.18    1.82
  -2  15 -10    9.96    2.31
  -2  15 -10    9.83    2.69
   2 -16 -10  680.22   35.06
   2  16  -9    4.43    2.87
   2  16  -9    0.57    1.01
   2 -16  -8  276.76   17.22
   2  16  -8  301.21   18.01
   2  16  -8  299.00   18.29
   2 -16  -7   21.69    4.43
   2  16  -7   39.08    4.79
   2  16  -7   23.99    5.11
   2  16  -7   41.83    5.71
   2  16  -6  639.89   32.59
   2 -16  -6  633.05   32.39
  -2  16   6  539.42   46.83
  -2  16   6  527.34   41.29
  -2  16   5   26.99    7.89
   2 -16  -5   22.48    4.08
   2  16  -5    8.80    3.69
   2  16  -4  275.72   17.33
  -2  16   4  286.11   25.38
   2  16  -4  276.27   17.08
  -2  16   3    6.67    2.35
   2  16  -3    7.37    3.20
   2  16  -3   13.12    3.64
  -2  16   2  500.33   25.24
  -2  16   2  414.40   38.67
   2  16  -2  453.33   25.87
  -2  16   1   25.59    4.02
  -2  16   1   24.01    9.17
   2  16   0  522.23   30.29
  -2  16   0  581.70   29.76
  -2  16   0  578.00   43.39
   2  16   0  594.39   30.87
  -2  16  -1    5.14    2.33
   2  16   1    2.09    2.68
  -2  16  -2  831.71   42.33
   2  16   2  859.82   43.02
   2  16   2  728.21   54.43
   2  16   2  893.97   43.31
  -2  16  -3   17.32    3.45
   2  16   3   17.33    3.70
   2  16   3   21.76    8.29
   2  16   4 2202.59  123.14
  -2  16  -4 2299.48  106.23
  -2 -16  -4 2081.36  116.22
   2  16   4 2289.23  106.55
   2  16   4 2194.08  126.56
  -2 -16  -5    2.22    5.61
  -2  16  -5   -1.93    2.52
   2  16   5   -1.22    2.45
   2  16   5    3.25    5.21
  -2  16  -6  304.91   18.96
  -2  16  -6  317.64   18.39
   2  16   6  253.46   27.58
  -2  16  -7   75.22    7.43
  -2  16  -7   86.76    7.69
  -2  16  -8  521.85   27.83
  -2  16  -8  558.38   28.31
  -2  16  -8  534.23   28.41
  -2  16  -9    1.84    1.61
  -2  16  -9   -0.45    2.11
  -2  16  -9   -0.50    2.16
  -2 -16 -10   48.96    3.56
  -2  16 -10   56.82    4.51
   2 -17 -10    2.14    2.18
   2  17  -9   -0.49    0.79
   2  17  -9  162.45    8.14
   2  17  -8    3.71    2.79
   2  17  -8    4.21    3.46
   2 -17  -7  130.96    9.87
   2  17  -7  132.61   10.67
   2  17  -7  144.69   11.41
   2 -17  -6   41.33    5.34
  -2  17   6   45.39   12.28
   2  17  -6   40.65    5.27
   2  17  -6   62.33    7.35
   2 -17  -5 1087.18   52.44
  -2  17   5  933.18   62.00
   2  17  -5 1079.97   53.35
  -2  17   4   34.70   10.75
  -2  17   4   16.96    6.54
   2  17  -4   29.74    4.68
  -2  17   3  197.15   11.86
   2  17  -3  185.76   13.16
   2  17  -3  178.29   12.77
  -2  17   2   35.82    4.44
  -2  17   2   49.39   12.64
   2  17  -2   34.97    5.30
   2  17  -1  301.52   19.26
  -2  17   1  322.43   18.29
  -2  17   1  263.71   29.96
   2  17  -1  340.29   19.85
   2  17   0   11.02    3.80
   2  17   0    6.99    3.19
  -2  17   0    9.55    6.25
   2  17   1  255.42   16.62
  -2  17  -1  277.95   15.77
   2  17   2    1.37    2.27
  -2  17  -2   -0.59    2.53
  -2  17  -3 1384.06   66.57
   2  17   3 1321.08   81.90
  -2 -17  -4    2.22    4.70
  -2  17  -4    7.55    3.11
   2  17   4   -3.26    5.83
   2  17   5  219.30   24.59
  -2  17  -5  219.74   14.25
  -2  17  -5  226.71   13.85
  -2  17  -6   16.44    3.66
  -2  17  -6   19.44    4.38
  -2  17  -6   15.81    4.06
  -2  17  -7  144.68   10.85
  -2  17  -7  154.56   10.94
  -2  17  -7  146.37   10.37
  -2  17  -8    6.25    2.13
  -2  17  -8    8.02    3.16
  -2  17  -8    4.84    2.73
  -2 -17  -9   16.19    2.48
  -2  17 -10    2.10    1.38
   2 -18  -9    9.13    2.44
   2 -18  -9    8.79    3.24
   2 -18  -8  188.21   13.82
   2  18  -8  230.25   13.96
   2  18  -8  205.53   13.59
   2 -18  -7   22.06    3.83
   2  18  -7   21.79    4.70
   2  18  -6  127.74    9.44
   2 -18  -6  112.83    9.10
  -2  18   5   -3.85    6.88
   2  18  -5    0.76    3.38
   2  18  -5   -0.94    3.83
   2 -18  -5   -1.16    2.83
  -2  18   4  172.53   23.11
   2  18  -4  160.35   11.43
   2 -18  -4  129.80    9.92
  -2  18   3    5.86    2.69
   2  18  -3   14.36    3.85
   2  18  -3    7.54    3.83
   2  18  -3   10.76    3.88
  -2  18   3    3.97    7.12
   2  18  -2  100.05    8.98
   2 -18  -2   80.70    7.47
  -2  18   2   85.96    7.14
  -2  18   1   22.03    8.45
   2  18  -1   36.29    5.81
   2  18  -1   38.93    6.03
   2  18   0   63.17    7.24
   2  18   0   72.36    7.67
   2  18   1   53.21    6.50
   2  18   1   61.16    6.76
  -2  18  -1   51.50    5.52
   2  18   2  121.78    9.81
  -2  18  -2  132.18    9.51
  -2  18  -3   62.71    6.53
  -2 -18  -4   42.71    9.53
  -2  18  -4   62.10    6.37
   2  18   4   48.29   11.78
  -2  18  -5    7.93    3.67
  -2  18  -5    9.66    3.56
  -2  18  -6  105.76    8.84
  -2  18  -6   96.61    8.40
  -2  18  -7   11.47    3.22
  -2  18  -7    3.64    2.93
  -2  18  -8   39.44    4.76
  -2 -18  -9    9.03    1.61
   2 -19 -10    0.16    0.88
   2 -19  -9  162.71    9.37
   2 -19  -9  166.37   10.85
   2 -19  -8    2.63    3.03
   2  19  -8    9.99    3.20
   2 -19  -7  818.28   43.94
   2  19  -7  916.06   44.72
   2  19  -6    7.88    3.40
   2  19  -6    7.05    3.93
   2 -19  -6    0.97    2.07
   2  19  -5  905.98   46.04
   2  19  -5  902.78   45.15
   2  19  -4    4.48    3.23
   2  19  -4    9.19    4.54
   2  19  -3 1167.51   57.46
   2  19  -3 1148.57   58.03
   2 -19  -3 1148.78   56.72
  -2  19   3 1008.45   73.40
   2  19  -2   35.43    5.81
  -2  19   2   23.34    9.45
  -2  19   1  735.51   58.53
   2  19  -1  819.80   44.81
   2  19   0   -3.32    3.70
   2  19   0   -0.83    3.32
  -2  19  -1  313.81   17.50
   2  19   1  327.38   19.08
   2  19   1  274.29   18.56
   2  19   2  107.79    8.99
  -2  19  -2  128.61    9.00
   2  19   2  103.12    9.28
  -2  19  -3  468.44   24.96
   2  19   3  441.31   25.52
  -2  19  -4   -1.30    2.90
   2  19   4    0.71    2.72
  -2  19  -5  781.63   38.24
   2  19   5  691.06   37.59
  -2  19  -5  760.06   38.69
  -2  19  -6   36.69    4.98
  -2  19  -6   36.61    4.89
   2  19   6   33.14    4.27
  -2  19  -7  625.40   30.53
  -2  19  -7  615.80   30.62
  -2  19  -7  554.32   29.42
  -2  19  -8   46.43    4.60
   2 -20  -9    5.80    1.51
   2 -20  -8   22.77    3.79
   2  20  -8   29.21    3.76
   2 -20  -7   19.79    4.11
   2  20  -7   16.55    3.99
   2  20  -6  369.37   22.10
   2 -20  -6  370.61   21.76
   2  20  -6  413.42   23.01
   2 -20  -5    7.13    3.61
   2  20  -5    3.31    2.21
   2 -20  -4  239.19   15.09
   2  20  -4  224.90   15.92
   2 -20  -3   12.49    3.52
   2  20  -3   22.02    4.88
   2  20  -2  415.81   24.59
   2  20  -1    8.09    3.68
   2  20  -1    5.10    3.86
   2  20   0   40.41    5.91
   2  20   0   38.25    5.80
   2  20   1   -0.79    3.03
   2  20   1   -0.75    3.11
  -2  20  -1    2.09    2.40
   2  20   2  281.98   18.35
   2  20   2  286.22   17.78
  -2  20  -2  339.23   17.81
   2  20   3    7.92    3.30
  -2  20  -3   15.54    3.42
   2  20   4  644.43   33.39
   2  20   4  605.68   32.91
  -2  20  -4  649.98   32.91
   2  20   5    1.71    2.38
  -2  20  -5    0.68    2.66
  -2  20  -5   -1.19    2.73
   2  20   6   59.05    5.46
  -2  20  -6   70.66    6.38
  -2  20  -6   68.17    6.34
  -2  20  -7    6.79    2.19
  -2  20  -7    5.45    2.26
  -2  20  -8   95.43    6.29
  -2  20  -8   79.87    5.76
   2 -21  -8   15.02    2.05
   2  21  -8   11.22    2.27
   2 -21  -7  702.97   36.82
   2  21  -7  782.28   37.59
   2 -21  -6   -1.17    2.60
   2  21  -6   -2.17    3.22
   2  21  -6   -0.62    1.10
   2 -21  -5   50.76    5.81
   2 -21  -4    8.48    3.23
   2  21  -4    6.57    3.62
   2  21  -3  623.86   33.85
   2  21  -2   57.55    6.98
   2  21  -1  306.93   19.03
   2  21  -1  321.07   19.54
   2  21   0   -2.26    2.76
   2  21   0    0.77    2.87
   2  21   1 1097.03   55.86
   2  21   1 1150.18   55.72
   2  21   2   17.63    4.14
  -2  21  -2   16.04    3.37
   2  21   3   32.83    4.65
  -2  21  -3   18.67    3.68
   2  21   4    2.92    2.39
  -2  21  -4    7.15    2.96
   2  21   4    2.40    2.31
  -2  21  -5  529.68   27.53
   2  21   5  489.25   26.53
  -2  21  -5  541.33   27.16
  -2  21  -6    6.53    2.21
  -2  21  -6   10.11    2.80
  -2  21  -7   95.98    6.93
  -2  21  -7   98.62    6.77
   2  22  -7   46.42    4.70
   2  22  -6  335.68   19.25
   2 -22  -5    9.63    2.62
   2  22  -5    7.97    3.41
   2  22  -4  223.18   14.77
   2  22  -3   48.97    6.19
   2  22  -2  506.36   27.94
   2  22  -1   94.27    7.84
   2  22  -1   85.73    7.80
   2  22   0  200.71   13.95
   2  22   0  240.14   14.60
   2  22   1    3.96    2.94
   2  22   1    1.20    2.31
   2  22   2  438.74   24.04
   2  22   3   11.99    3.02
  -2  22  -3   14.40    2.97
   2  22   3   15.39    3.60
  -2  22  -4  437.12   23.62
   2  22   4  411.48   22.81
  -2  22  -4  456.42   22.96
  -2  22  -5    0.48    1.72
  -2  22  -5    0.43    1.97
  -2  22  -6  488.84   25.27
  -2  22  -6  531.57   26.10
   2  23  -6    2.35    2.10
   2  23  -5    2.20    2.20
   2  23  -4    2.48    2.76
   2  23  -3    0.64    2.70
   2  23  -2    0.64    2.76
   2  23  -1  219.19   13.87
   2  23   0    2.86    2.33
  -2  23   0    2.44    2.25
   2  23   1   24.85    4.08
  -2  23  -1   34.57    4.41
   2  23   1   25.09    3.59
   2  23   2   -0.53    2.15
   2  23   2    4.70    2.74
   2  23   3   20.44    3.30
   2  23   3   22.50    3.71
  -2  23  -4    8.84    2.39
  -2  23  -5   18.64    3.27
   2  24  -5    1.29    1.69
   2  24  -4  157.95   10.19
   2  24  -4  149.81   10.41
   2  24  -3   41.86    4.69
   2  24  -3   30.82    4.87
   2  24  -2  112.88    8.35
   2  24  -1   44.07    4.74
   2  24   0  259.72   14.52
  -2  24   0  255.06   14.03
  -2  24  -1   16.33    2.94
   2  24   1   14.14    3.51
  -2  24  -2   93.92    7.07
   2  24   2   87.57    7.29
   2  24   3   12.24    2.40
  -2  24  -3   20.30    3.28
  -2  24  -4  257.51   14.33
  -2  24  -5    0.90    1.27
   2  25  -4   -0.69    1.40
   2  25  -3  412.78   21.58
   2  25  -3  431.07   22.41
   2  25  -2   10.96    2.34
   2  25  -1   55.13    5.58
   2  25   0   11.89    2.97
   2  25   1  293.66   16.37
  -2  25  -2    7.30    1.79
   2  25   2    8.91    1.97
  -2  25  -3  106.24    6.73
   2  26  -1    0.73    1.32
   3   0 -14    6.76    1.85
   3   0 -13  584.72   29.40
   3   0 -12   12.56    3.23
   3   0 -12   13.22    4.21
   3   0 -12   13.73    4.17
   3   0 -11 2969.27  140.10
   3   0 -11 2990.51  138.86
   3   0 -11 2882.22  157.20
   3   0 -11 2991.25  140.31
   3   0 -10    4.71    3.50
   3   0 -10    7.01    3.19
   3   0 -10   -3.27    5.24
   3   0 -10    0.63    3.10
   3   0 -10    0.81    3.42
   3   0  -9  680.31   35.55
   3   0  -9  701.02   35.54
   3   0  -9  628.87   35.86
   3   0  -9  687.93   34.60
   3   0  -9  714.41   48.52
   3   0  -9  666.36   34.55
   3   0  -8   34.31    8.19
   3   0  -8   25.72    4.28
   3   0  -8   31.01    4.70
   3   0  -8   30.45    4.40
   3   0  -7  828.84   41.51
   3   0  -7  780.31   40.50
   3   0  -7  877.16   41.22
   3   0  -7  820.03   40.50
   3   0  -7  893.55   51.00
   3   0  -7  852.32   41.18
   3   0  -6    0.79    1.54
   3   0  -6   -1.61    4.08
   3   0  -6    2.03    1.89
   3   0  -5  122.25   11.60
   3   0  -5  106.61    7.00
   3   0  -4    3.12    3.00
   3   0  -3 3632.15  166.96
   3   0  -3 3473.65  167.88
   3   0  -2   67.58    6.88
   3   0  -2   77.23    7.97
   3   0  -1 9593.56  436.70
   3   0   0  292.40   16.64
   3   0   0  319.67   17.99
   3   0   0  261.19   13.18
  -3   0  -1  100.71    7.72
   3   0   1  110.85    9.47
  -3   0  -2   16.20    3.45
   3   0   2   16.66    4.12
  -3   0  -3 3216.67  151.15
   3   0   3 3201.46  152.07
   3   0   4   -1.08    3.01
  -3   0  -4    0.36    1.63
  -3   0  -5  300.17   20.44
  -3   0  -5  283.13   15.82
   3   0   5  282.22   19.99
   3   0   6   17.13    4.79
  -3   0  -6   15.22    3.60
  -3   0  -6   16.74    3.12
  -3   0  -6   28.16    8.23
  -3   0  -6   25.44    5.71
  -3   0  -7 1197.63   61.27
  -3   0  -7 1312.36   59.65
  -3   0  -7 1179.39   59.96
  -3   0  -7 1212.72   66.12
  -3   0  -7 1376.73   76.37
  -3   0  -8   -3.24    6.86
  -3   0  -8    2.79    2.49
  -3   0  -8   -0.88    3.51
  -3   0  -8    4.56    3.00
  -3   0  -9 1148.79   60.19
  -3   0  -9 1249.81   75.81
  -3   0  -9 1209.68   58.11
  -3   0 -10   13.95    4.73
  -3   0 -10    7.03    3.31
  -3   0 -11  469.70   27.44
  -3   0 -11  499.92   25.65
  -3   0 -12    0.63    2.47
   3   1 -14   57.24    4.23
   3  -1 -14   52.22    4.14
   3   1 -13    7.47    2.56
   3  -1 -13    4.58    2.60
   3   1 -12   51.65    5.78
   3  -1 -12   55.03    5.84
   3  -1 -12   71.50    7.07
   3   1 -12   56.29    6.77
   3   1 -12   61.94    6.12
   3  -1 -12   65.86    7.02
   3  -1 -11    2.35    3.70
   3   1 -11   -0.83    3.50
   3  -1 -11    1.25    2.75
   3   1 -11    4.99    2.96
   3  -1 -11    3.37    6.03
   3  -1 -11    1.23    3.23
   3  -1 -11   -1.65    3.78
   3  -1 -10  400.51   23.36
   3  -1 -10  401.00   23.15
   3   1 -10  396.87   23.43
   3   1 -10  379.09   22.15
   3  -1 -10  399.02   22.35
   3  -1 -10  442.28   36.96
   3  -1 -10  416.29   22.49
   3   1 -10  399.43   22.37
   3  -1  -9   10.64    3.74
   3   1  -9   10.94    3.80
   3  -1  -9    4.82    3.28
   3  -1  -9    8.30    3.78
   3   1  -9    7.01    2.91
   3  -1  -9    5.74    6.50
   3   1  -9   11.68    3.29
   3  -1  -8  317.15   18.84
   3  -1  -8  339.53   19.29
   3   1  -8  342.71   19.51
   3  -1  -8  360.41   19.85
   3  -1  -8  345.62   20.03
   3   1  -8  329.33   18.61
   3  -1  -8  339.73   28.69
   3  -1  -8  354.08   19.54
   3  -1  -7   34.24    4.68
   3  -1  -7   45.20    4.85
   3  -1  -7   42.48    4.54
   3  -1  -7   53.96    5.12
   3  -1  -7   44.90    4.52
   3  -1  -7   47.88    9.25
   3   1  -7   46.46    4.85
   3  -1  -7   44.27    4.79
   3  -1  -6  345.20   18.91
   3  -1  -6  368.52   18.92
   3  -1  -6  343.63   25.19
   3  -1  -5    7.43    1.95
   3  -1  -5    8.99    3.86
   3  -1  -4  561.13   32.18
   3  -1  -3  287.21   19.67
   3  -1  -3  312.73   19.13
   3  -1  -2  904.23   47.38
   3  -1  -2  916.59   46.29
   3  -1  -1   -0.72    2.38
   3  -1  -1   -0.49    1.61
  -3   1   0   63.28    4.79
   3   1   0   72.98    4.94
   3   1   0   80.25    7.58
   3  -1   0   72.12    6.53
  -3   1  -1  359.71   19.93
   3  -1   1  380.88   22.70
   3   1   1  399.31   22.64
  -3   1  -2   59.43    6.11
  -3  -1  -2   61.72    6.38
   3   1   2   72.83    7.62
  -3  -1  -3   44.93    5.90
   3   1   3   33.08    5.62
  -3  -1  -4   14.40    2.39
   3   1   4   14.68    4.16
  -3  -1  -4   10.16    4.09
  -3   1  -4   14.19    2.42
  -3   1  -5   -0.88    1.86
  -3  -1  -5    0.86    1.65
  -3   1  -5    1.30    2.76
   3   1   5    1.14    2.42
   3  -1   6  195.42   16.68
  -3  -1  -6  218.36   13.51
   3   1   6  193.36   15.89
  -3   1  -6  209.51   11.90
  -3   1  -6  201.75   17.25
  -3   1  -6  195.35   12.38
  -3  -1  -6  148.52   18.73
  -3  -1  -6  209.38   12.46
  -3  -1  -6  200.53   16.46
   3  -1   7    1.52    2.72
  -3   1  -7   -2.44    1.87
  -3   1  -7   -1.65    3.24
  -3  -1  -7    1.44    2.57
  -3   1  -7   -1.18    2.27
  -3  -1  -7    5.75    6.50
  -3  -1  -7   -1.16    2.42
  -3  -1  -7   -2.27    3.03
  -3   1  -8  564.01   28.48
  -3  -1  -8  532.28   28.26
  -3  -1  -8  551.30   30.41
  -3   1  -8  536.55   28.97
  -3  -1  -8  483.89   40.78
  -3  -1  -9    3.67    4.04
  -3   1  -9   10.26    3.40
  -3  -1  -9    8.36    2.81
   3   1   9    8.63    4.90
  -3   1  -9    6.24    3.52
  -3  -1  -9    3.33    5.35
  -3  -1 -10   10.02    4.29
  -3   1 -10   16.55    3.65
  -3  -1 -10   11.60    3.37
  -3  -1 -11   10.54    4.17
  -3  -1 -11    7.52    2.57
  -3  -1 -12    9.25    3.30
  -3   1 -13    0.17    0.90
   3  -2 -14    4.10    1.60
   3   2 -14    3.26    1.51
   3  -2 -13  606.49   30.16
   3   2 -13  579.25   30.16
   3  -2 -13  632.94   30.43
   3  -2 -12    2.72    2.89
   3   2 -12    2.69    2.96
   3   2 -12    5.29    3.83
   3  -2 -12   -0.67    3.37
   3  -2 -12    8.18    3.86
   3   2 -12    5.37    3.47
   3  -2 -11 1022.89   47.94
   3   2 -11  957.41   46.27
   3   2 -11  947.00   47.87
   3  -2 -11  931.60   47.04
   3   2 -11  922.21   46.11
   3  -2 -11  876.96   45.95
   3  -2 -11  822.94   60.11
   3   2 -11  771.91   59.80
   3  -2 -11  912.37   46.09
   3  -2 -10    5.92    3.31
   3   2 -10    2.52    4.04
   3  -2 -10    3.16    5.66
   3   2 -10   13.10    7.87
   3  -2 -10    5.79    2.97
   3   2 -10    6.94    3.00
   3  -2 -10    7.61    3.14
   3  -2 -10    5.44    3.79
   3  -2  -9   99.60    8.41
   3  -2  -9  102.94    8.29
   3   2  -9   84.66    8.16
   3  -2  -9   85.47    8.57
   3   2  -9   91.04    7.66
   3  -2  -9   95.76   15.38
   3   2  -9   84.63   15.01
   3   2  -9  102.41    8.00
   3  -2  -8    5.51    2.55
   3   2  -8    3.87    2.83
   3  -2  -8    2.34    2.44
   3  -2  -8    2.63    2.63
   3  -2  -8    1.39    2.67
   3   2  -8    5.68    2.73
   3   2  -8    3.97    2.07
   3  -2  -8    2.38    2.57
   3   2  -8    3.68    2.87
   3  -2  -8    7.17    5.74
   3   2  -8    2.46    5.22
   3  -2  -7  257.55   14.87
   3  -2  -7  217.47   14.24
   3   2  -7  246.82   14.82
   3  -2  -7  249.16   14.58
   3  -2  -7  224.05   14.05
   3  -2  -7  252.24   21.37
   3  -2  -7  243.19   14.28
   3   2  -7  259.69   14.52
   3  -2  -7  257.42   14.18
   3  -2  -6    0.40    1.66
   3   2  -6   -0.81    1.52
   3  -2  -6    1.60    4.04
   3  -2  -5 1223.78   57.42
   3   2  -5 1217.40   57.43
   3  -2  -5 1229.77   63.99
   3  -2  -4   51.34    3.92
   3  -2  -4   58.81    7.30
   3  -2  -3 2026.26  102.09
   3  -2  -3 2173.11  101.24
   3  -2  -2    2.74    3.19
   3  -2  -2   -1.48    2.36
   3  -2  -1 3029.18  140.75
   3  -2  -1 2981.05  138.58
   3   2   0   67.55    5.45
   3   2   1  384.23   22.22
   3   2   1  357.53   22.04
   3   2   2    0.92    2.65
   3   2   2    0.96    2.44
  -3  -2  -2    3.95    2.83
  -3   2  -3 1890.07   91.28
   3   2   3 2183.17   96.80
  -3  -2  -3 2090.63   96.52
  -3   2  -4    3.57    3.16
  -3   2  -4    2.20    1.64
   3   2   4   -1.05    2.90
  -3  -2  -4    1.08    1.63
  -3  -2  -4   -1.18    3.41
   3   2   5  158.36   13.22
  -3   2  -5  158.52   10.01
  -3  -2  -5  155.22    9.88
  -3   2  -5  160.26   14.30
   3   2   6    4.72    3.00
  -3   2  -6    5.78    2.13
  -3   2  -6    6.32    4.20
  -3  -2  -6    7.57    3.50
  -3  -2  -6    5.73    2.61
  -3   2  -6    5.82    2.55
  -3  -2  -6    7.61    2.64
  -3  -2  -6   -2.47    5.23
  -3  -2  -7  484.39   36.89
  -3   2  -7  473.52   24.65
   3  -2   7  489.65   31.50
  -3  -2  -7  467.59   26.24
  -3  -2  -7  492.17   29.81
  -3   2  -7  460.26   31.64
  -3   2  -7  442.01   25.19
  -3  -2  -7  486.24   25.42
   3   2   8   -2.04    3.99
  -3   2  -8   -0.56    2.60
  -3  -2  -8   -0.56    2.32
  -3  -2  -8    2.53    3.24
  -3   2  -8    9.85    7.43
  -3  -2  -8    6.23    7.88
  -3   2  -8   -0.66    3.05
  -3   2  -9  639.08   32.52
  -3  -2  -9  666.94   32.59
  -3   2  -9  503.51   45.14
  -3  -2  -9  682.01   48.07
  -3  -2  -9  609.46   34.23
   3   2   9  551.72   39.91
  -3   2 -10   12.48    3.58
  -3  -2 -10   10.33    3.43
  -3  -2 -10    6.23    3.59
  -3  -2 -11  230.36   13.64
  -3  -2 -11  224.21   15.18
  -3   2 -12    3.71    2.89
  -3  -2 -12    3.56    2.47
  -3   2 -13  200.38   10.30
   3   3 -14  173.94    9.81
   3  -3 -14  188.69    9.97
   3  -3 -13    5.90    2.15
   3  -3 -13    5.30    2.52
   3   3 -13    4.80    2.51
   3   3 -12  927.33   45.45
   3  -3 -12  895.89   46.01
   3  -3 -12  924.47   45.44
   3  -3 -12  932.59   45.50
   3  -3 -12  933.25   46.71
   3   3 -12  917.86   46.81
   3  -3 -11    5.11    3.51
   3   3 -11    7.76    4.48
   3  -3 -11    7.51    3.10
   3   3 -11    4.33    2.86
   3   3 -11   -3.33    5.97
   3  -3 -11    3.17    6.73
   3   3 -11   12.87    3.78
   3  -3 -11    7.38    3.27
   3  -3 -11    5.42    3.62
   3   3 -11    6.50    3.69
   3  -3 -10  775.26   40.51
   3   3 -10  793.11   40.91
   3  -3 -10  814.25   40.41
   3   3 -10  810.22   41.45
   3   3 -10  755.45   39.50
   3   3 -10  750.39   54.22
   3  -3 -10  726.59   52.88
   3  -3 -10  767.26   39.64
   3  -3  -9    7.74    2.94
   3  -3  -9    1.32    2.66
   3   3  -9   11.76    3.77
   3  -3  -9    8.61    3.71
   3   3  -9    5.77    2.74
   3  -3  -9   16.48    7.29
   3   3  -9   11.59    6.14
   3  -3  -9    3.39    2.99
   3   3  -9    5.01    2.82
   3  -3  -8   77.33   12.59
   3   3  -8   76.05   12.98
   3  -3  -8   75.40    7.33
   3  -3  -8   84.43    7.15
   3  -3  -8   69.10    7.10
   3   3  -8   91.08    7.93
   3  -3  -8   89.86    7.83
   3   3  -8   86.20    6.77
   3  -3  -8   77.65    7.04
   3   3  -8   91.98    7.61
   3   3  -8   95.61    7.19
   3  -3  -7    0.56    2.08
   3  -3  -7    0.57    2.13
   3   3  -7   -0.58    1.98
   3  -3  -7    1.00    1.88
   3  -3  -7    1.43    1.99
   3  -3  -7    2.91    2.02
   3   3  -7    1.00    2.01
   3  -3  -7    1.94    3.48
   3   3  -7    4.01    4.25
   3  -3  -6 1035.44   49.01
   3   3  -6 1015.91   49.01
   3  -3  -6 1007.65   56.45
   3   3  -6 1000.95   56.75
   3  -3  -5   22.98    2.81
   3   3  -5   24.97    2.89
   3  -3  -5   30.49    6.20
   3   3  -5   24.49    5.37
   3   3  -4  149.85    8.56
   3  -3  -4  154.17    8.58
   3  -3  -4  166.15   12.82
   3   3  -3  222.96   16.08
   3  -3  -3  282.99   17.05
   3   3  -3  244.13   17.43
   3  -3  -3  256.28   17.65
   3   3  -2 3355.44  152.59
   3  -3  -2 3388.14  152.69
   3   3  -2 3074.64  153.46
   3  -3  -2 3254.27  153.66
   3  -3  -2 3210.61  151.81
   3  -3  -1   44.96    5.55
   3  -3  -1   50.21    4.55
   3   3   0   62.63    6.59
   3   3   0   62.38    5.78
   3   3   1   76.24    7.85
   3   3   2   68.58    7.67
  -3  -3  -3   27.11    5.51
  -3   3  -3   29.93    3.26
   3   3   3   30.70    5.77
   3   3   3   32.90    5.58
   3   3   4  609.46   34.71
   3   3   4  629.82   36.41
  -3   3  -4  650.88   36.66
  -3  -3  -4  643.22   30.46
  -3  -3  -4  644.95   36.35
  -3   3  -4  569.54   30.35
  -3   3  -5    2.73    2.04
   3   3   5    1.43    2.58
   3   3   5   11.08    3.66
  -3  -3  -5    7.39    4.43
  -3  -3  -5    7.51    2.48
  -3   3  -5    5.87    4.08
  -3  -3  -6  819.33   46.87
  -3   3  -6  834.05   43.11
  -3  -3  -6  881.70   43.16
  -3   3  -6  886.07   42.43
   3   3   6  845.68   49.91
  -3  -3  -6  923.81   44.07
  -3   3  -6  898.43   44.37
  -3   3  -6  905.04   50.65
  -3   3  -6  809.46   54.71
  -3  -3  -6  864.87   54.43
   3   3   7    3.65    4.85
  -3   3  -7    6.50    2.37
  -3   3  -7    3.10    2.72
  -3   3  -7   11.84    5.80
  -3  -3  -7    8.27    5.84
  -3   3  -7    0.79    3.16
  -3  -3  -7    2.19    2.81
  -3   3  -8 1669.83   80.31
  -3  -3  -8 1667.05   79.89
   3   3   8 1678.41   87.63
  -3   3  -8 1647.83   77.97
  -3   3  -8 1565.27   78.51
  -3   3  -8 1661.72   95.63
  -3  -3  -8 1613.23   93.64
   3   3   9   10.14    5.62
  -3   3  -9   -1.22    3.06
  -3  -3  -9    1.77    2.71
  -3   3  -9   -3.39    5.43
  -3  -3  -9   -3.15    6.18
  -3   3  -9    0.94    3.46
  -3  -3  -9   -0.87    4.19
  -3   3 -10   47.25    6.64
  -3  -3 -10   50.56    6.49
  -3  -3 -10   45.33    5.48
  -3   3 -11    4.04    3.29
  -3  -3 -11    0.75    2.95
  -3  -3 -11   -1.45    2.53
  -3   3 -12   31.43    4.60
  -3  -3 -12   39.77    4.92
  -3  -3 -12   41.87    4.01
  -3   3 -13    0.36    0.89
   3   4 -14    2.27    1.51
   3  -4 -14    3.78    1.52
   3   4 -13    3.88    2.39
   3  -4 -13    3.44    2.12
   3  -4 -12   17.58    3.83
   3  -4 -12   17.60    4.18
   3   4 -12   28.63    4.90
   3   4 -12   31.36    4.49
   3  -4 -12   25.42    4.26
   3  -4 -12   20.53    4.02
   3  -4 -11   14.37    3.81
   3  -4 -11   17.82    4.21
   3   4 -11   22.14    4.56
   3   4 -11   22.76    5.22
   3  -4 -11   20.99    4.35
   3   4 -11   24.87    4.35
   3  -4 -11   17.80    4.15
   3  -4 -10   13.04    3.68
   3   4 -10   16.79    4.46
   3  -4 -10   11.22    3.78
   3   4 -10   19.10    8.47
   3  -4 -10   20.76    8.24
   3   4 -10   15.05    3.81
   3   4 -10   11.29    3.20
   3  -4 -10   13.83    4.13
   3   4 -10   20.32    4.47
   3  -4  -9   15.26    3.87
   3  -4  -9    5.21    3.05
   3  -4  -9    7.87    3.63
   3   4  -9    6.92    2.82
   3  -4  -9    8.00    5.65
   3   4  -9    2.87    4.60
   3  -4  -9    5.94    2.96
   3   4  -9    4.97    3.32
   3  -4  -8   -2.28    2.28
   3   4  -8   -0.61    2.47
   3  -4  -8    1.72    2.39
   3  -4  -8    6.91    2.77
   3   4  -8    2.14    2.13
   3  -4  -8   -0.68    2.65
   3   4  -8    0.49    2.04
   3   4  -8    1.51    1.57
   3  -4  -8    6.87    4.85
   3   4  -8    2.44    4.78
   3  -4  -8    1.13    2.52
   3  -4  -7   48.59    5.28
   3  -4  -7   39.79    4.82
   3   4  -7   41.46    4.96
   3   4  -7   49.35    5.07
   3  -4  -7   34.94    4.53
   3  -4  -7   47.80    9.13
   3   4  -7   56.04    9.81
   3   4  -7   41.41    4.71
   3  -4  -7   45.71    4.61
   3  -4  -7   44.39    4.73
   3  -4  -6   14.47    2.50
   3   4  -6   16.95    2.80
   3  -4  -6   14.05    5.04
   3   4  -6   11.27    4.69
   3   4  -5  279.64   15.52
   3  -4  -5  309.46   15.66
   3  -4  -5  294.93   20.88
   3   4  -5  315.74   21.36
   3  -4  -4   33.21    3.10
   3   4  -4   35.35    3.27
   3  -4  -4   42.84    6.37
   3   4  -4   42.06    6.28
   3   4  -3  159.54   11.77
   3  -4  -3  139.16   11.13
   3   4  -3  119.91   11.54
   3  -4  -3  139.99   11.94
   3  -4  -2   13.53    3.11
   3   4  -2    6.53    3.12
   3  -4  -2   17.22    4.07
   3  -4  -1 2596.75  120.07
   3   4   0   82.28    7.36
   3   4   1  160.50   12.81
   3   4   1  180.31   12.50
   3   4   2   18.55    4.29
  -3  -4  -3  238.06   12.76
  -3   4  -3  231.53   13.06
   3   4   3  248.24   17.72
  -3  -4  -3  254.32   17.49
   3   4   4   17.20    4.89
  -3   4  -4    9.53    4.40
  -3   4  -4   15.43    2.66
  -3  -4  -4   11.99    2.37
  -3  -4  -4   18.42    5.40
   3   4   5    2.95    3.34
  -3  -4  -5    1.54    3.90
  -3   4  -5    1.94    1.82
  -3   4  -5   -1.56    3.96
  -3   4  -6    1.77    3.75
  -3  -4  -6    4.39    2.78
  -3   4  -6    6.64    2.70
  -3  -4  -6    5.55    2.57
  -3   4  -6    2.70    2.54
   3   4   6    3.30    3.24
  -3   4  -6    5.65    2.13
  -3  -4  -6    2.38    3.81
  -3   4  -6   10.32    5.85
  -3  -4  -7  151.57   10.89
   3   4   7  127.91   14.57
  -3   4  -7  132.26   10.75
  -3   4  -7  139.61    9.41
  -3   4  -7  138.68   10.19
  -3   4  -7  134.70   18.17
  -3  -4  -7  129.57   17.06
  -3   4  -8   -0.88    3.38
  -3  -4  -8   -1.61    3.46
   3   4   8    7.84    5.20
   3  -4   8    3.77    3.99
  -3   4  -8    1.74    2.58
  -3   4  -8   -3.21    6.30
  -3  -4  -8    2.96    6.26
  -3  -4  -9   68.66    6.61
  -3   4  -9   79.63    8.22
  -3  -4  -9   70.86    7.82
  -3   4  -9   92.94   15.84
  -3  -4  -9   79.41   14.43
  -3  -4 -10   -0.56    2.75
  -3   4 -10   -1.81    3.48
  -3  -4 -10    3.31    3.37
  -3  -4 -11   42.74    4.75
  -3   4 -11   40.32    5.72
  -3  -4 -11   39.91    5.46
  -3  -4 -12   10.12    2.30
  -3   4 -12    9.32    2.41
   3  -5 -14  112.53    6.58
   3   5 -13    1.49    2.22
   3  -5 -13   -0.37    1.83
   3  -5 -12 2299.34  109.12
   3   5 -12 2325.61  109.08
   3  -5 -12 2337.39  109.20
   3  -5 -12 2355.09  109.47
   3  -5 -12 2349.52  110.03
   3   5 -12 2361.39  110.40
   3  -5 -11   11.60    3.85
   3   5 -11   13.19    3.88
   3  -5 -11   11.33    3.69
   3  -5 -11   10.59    3.91
   3   5 -11    9.91    3.85
   3  -5 -11   13.72    3.60
   3   5 -10  233.32   15.59
   3  -5 -10  204.21   13.59
   3  -5 -10  174.02   13.63
   3   5 -10  196.05   12.20
   3  -5 -10  211.02   22.98
   3   5 -10  220.39   24.19
   3   5 -10  219.81   13.67
   3   5 -10  223.36   14.36
   3  -5 -10  201.14   13.67
   3  -5  -9    2.59    4.63
   3   5  -9    2.83    5.99
   3  -5  -9   -0.82    2.78
   3  -5  -9    1.92    2.67
   3  -5  -9   -1.59    3.43
   3   5  -9    1.36    1.86
   3   5  -9   -1.19    2.57
   3  -5  -9    3.20    2.98
   3   5  -9    1.40    2.80
   3  -5  -8  491.22   25.15
   3   5  -8  446.77   25.11
   3  -5  -8  503.21   25.33
   3   5  -8  508.29   25.05
   3   5  -8  500.40   26.31
   3   5  -8  444.34   25.74
   3  -5  -8  516.03   26.26
   3  -5  -8  425.47   25.44
   3   5  -8  440.91   23.83
   3   5  -8  429.22   24.26
   3  -5  -8  438.56   33.50
   3   5  -8  430.73   34.09
   3  -5  -8  506.69   25.45
   3  -5  -7   72.28    6.29
   3  -5  -7   65.83   10.02
   3   5  -7   77.85   11.72
   3   5  -7   65.56    5.51
   3  -5  -7   75.34    6.08
   3   5  -7   70.11    5.94
   3  -5  -7   59.04    6.15
   3   5  -7   64.77    6.28
   3  -5  -7   89.46    6.98
   3   5  -7   63.96    6.43
   3  -5  -6  220.81   18.63
   3   5  -6  259.61   19.89
   3  -5  -6  229.74   12.94
   3   5  -6  221.95   12.93
   3   5  -5   88.48   10.23
   3  -5  -5   75.19    9.45
   3  -5  -5  100.96    6.39
   3   5  -5   94.06    6.35
   3  -5  -4  922.39   48.64
   3   5  -4  952.61   49.10
   3   5  -4  892.75   43.48
   3  -5  -4  944.98   43.50
   3  -5  -3   33.18    4.97
   3   5  -3   33.04    5.12
   3   5  -3   25.50    5.15
   3  -5  -3   33.66    5.65
   3  -5  -2 1357.26   68.38
  -3   5   2 1444.30   66.68
   3   5  -2 1347.11   69.72
   3  -5  -2 1444.36   69.91
   3   5   0  569.28   31.31
   3   5   1   10.18    3.35
   3   5   1   14.46    3.97
   3   5   2 2326.56  113.67
  -3   5  -2 2375.71  113.79
   3   5   3   41.48    6.81
  -3   5  -3   52.67    7.66
  -3  -5  -4 3251.85  148.22
   3   5   4 3202.06  148.03
  -3   5  -4 2947.68  140.75
   3   5   5   -1.53    3.00
  -3   5  -5   -0.51    1.88
  -3  -5  -5   -1.61    3.88
  -3   5  -5    1.67    3.54
  -3  -5  -6  158.19   13.31
  -3   5  -6  236.99   22.14
  -3  -5  -6  182.57   19.18
   3   5   6  167.46   16.58
  -3  -5  -6  171.15   11.86
  -3   5  -6  195.80   12.59
  -3   5  -6  174.47   10.95
  -3  -5  -6  201.15   18.24
  -3   5  -6  231.47   19.35
  -3   5  -6  176.83   11.69
  -3   5  -7   -2.88    5.65
  -3  -5  -7    2.65    6.00
   3   5   7   -1.84    3.30
  -3   5  -7    4.73    2.46
  -3   5  -7    2.33    2.98
  -3  -5  -7    2.82    2.71
  -3   5  -8  389.55   35.28
  -3  -5  -8  440.90   35.81
  -3   5  -8  458.55   25.53
  -3  -5  -8  421.87   24.65
   3   5   8  420.40   30.82
  -3   5  -9    0.91    3.69
  -3  -5  -9   -1.64    3.47
  -3  -5  -9   -2.95    5.28
  -3   5  -9   -3.22    5.76
  -3   5 -10  415.47   24.63
  -3  -5 -10  404.01   24.00
  -3  -5 -10  429.86   22.75
  -3   5 -10  414.42   23.26
  -3   5 -11    0.73    2.98
  -3  -5 -11   -0.67    2.87
  -3  -5 -11   -1.36    2.41
  -3  -5 -12   52.60    4.83
  -3   5 -12   49.23    4.81
  -3  -5 -12   55.47    4.47
  -3   5 -12   53.09    4.48
   3  -6 -14   20.06    2.16
   3   6 -13 1137.78   52.02
   3  -6 -13 1054.49   51.75
   3   6 -12    1.48    2.79
   3  -6 -12    3.05    2.57
   3  -6 -12    0.51    2.44
   3  -6 -12    3.52    3.15
   3  -6 -11 1278.20   61.92
   3  -6 -11 1285.96   62.03
   3  -6 -11 1318.57   62.46
   3   6 -11 1217.00   62.57
   3   6 -11 1276.34   61.82
   3   6 -10    9.05    8.01
   3  -6 -10   13.63    7.87
   3   6 -10    7.83    2.31
   3  -6 -10   15.11    3.77
   3   6 -10    7.51    3.42
   3  -6 -10    5.96    3.42
   3  -6 -10    6.02    3.28
   3   6 -10    5.92    3.37
   3  -6  -9  363.99   21.07
   3   6  -9  369.12   21.04
   3  -6  -9  386.75   21.28
   3   6  -9  394.04   21.80
   3  -6  -9  353.55   30.25
   3   6  -9  358.63   31.54
   3   6  -9  377.45   20.28
   3   6  -8    2.40    4.29
   3  -6  -8    2.19    4.29
   3   6  -8    3.58    2.29
   3  -6  -8    6.99    2.74
   3   6  -8    0.89    1.59
   3   6  -8   -0.75    3.35
   3   6  -8   -1.09    2.30
   3  -6  -8    0.58    2.35
   3  -6  -8    1.20    2.87
   3  -6  -8   -0.54    2.42
   3   6  -8   -0.59    2.28
   3   6  -7  123.69    8.08
   3   6  -7  123.41    9.35
   3  -6  -7  123.60    9.25
   3   6  -7  111.78    8.98
   3   6  -7  115.22    8.03
   3  -6  -7  122.21    8.47
   3   6  -7  130.40    8.84
   3  -6  -7  131.40    9.02
   3   6  -7  133.45    8.64
   3  -6  -7  127.66   14.53
   3   6  -7  148.92   15.76
   3  -6  -6   45.14    4.33
   3   6  -6   47.73    4.44
   3   6  -6   43.27    4.81
   3  -6  -6   59.76    9.01
   3   6  -6   51.67    8.83
   3  -6  -5 1033.50   55.19
   3   6  -5 1062.26   55.78
   3  -6  -5 1035.51   48.74
   3   6  -5 1015.99   48.85
   3   6  -4    1.07    2.71
   3  -6  -4    4.07    2.70
   3  -6  -4   -0.26    1.14
   3   6  -4   -0.82    1.16
  -3   6   3 1885.91   86.72
   3  -6  -3 2050.39   91.18
   3   6  -3 1807.28   90.57
   3  -6  -3 1785.52   88.39
  -3   6   2    9.58    2.19
  -3   6   2   13.02    2.58
   3  -6  -2    9.29    2.81
   3   6  -2   12.21    3.56
   3  -6  -2    8.95    3.32
  -3   6   1 2581.58  118.13
   3   6  -1 2506.73  121.08
   3  -6  -1 2517.89  121.00
  -3   6   0  355.54   21.12
   3   6   0  357.64   22.42
  -3   6  -1  240.47   16.34
   3   6   1  224.90   16.58
  -3   6  -2   -1.14    2.73
   3   6   2   -1.13    2.21
  -3   6  -3 1019.37   58.39
   3   6   3 1190.46   59.06
   3   6   4    7.15    3.99
  -3   6  -4   11.19    2.57
  -3  -6  -4    7.39    5.17
  -3   6  -5  772.89   40.41
  -3  -6  -5  839.60   40.35
   3   6   5  802.78   46.92
  -3   6  -5  903.00   49.17
  -3  -6  -5  833.96   48.05
  -3   6  -5  804.96   40.40
  -3   6  -5  755.21   49.64
  -3  -6  -5  797.47   49.14
  -3   6  -6   -0.60    2.51
   3   6   6   -1.74    3.42
  -3  -6  -6    3.86    4.09
  -3   6  -6    7.53    5.31
  -3  -6  -6    2.31    4.13
  -3   6  -6   -0.66    2.38
  -3  -6  -6    1.21    2.21
  -3   6  -7 1225.94   63.81
  -3  -6  -7 1320.33   63.72
   3   6   7 1324.22   71.27
  -3   6  -7 1304.27   76.97
  -3  -6  -7 1373.74   76.53
  -3   6  -7 1318.62   63.49
  -3  -6  -8   -0.42    2.03
  -3   6  -8    0.85    2.95
  -3  -6  -8    0.77    3.24
  -3   6  -8    3.05    7.71
  -3  -6  -8    8.39    7.08
  -3  -6  -9  729.79   49.25
  -3   6  -9  662.67   49.14
  -3  -6  -9  674.42   36.77
  -3   6  -9  695.74   37.43
  -3   6  -9  715.19   36.45
  -3   6 -10    2.58    3.02
  -3  -6 -10   -1.07    2.74
  -3   6 -10    0.83    3.10
  -3  -6 -10    0.75    3.11
  -3  -6 -11  189.42   11.19
  -3   6 -11  187.66   11.54
  -3   6 -11  165.53   12.12
  -3  -6 -11  178.73   12.06
  -3  -6 -12    0.30    1.64
  -3   6 -12    1.35    1.68
   3  -7 -14   43.15    3.11
   3  -7 -13    2.87    1.86
   3   7 -13   -1.01    1.86
   3  -7 -12  236.76   14.46
   3   7 -12  260.90   14.68
   3  -7 -12  271.00   14.92
   3  -7 -12  239.38   14.20
   3   7 -11    7.50    2.26
   3   7 -11    3.46    3.04
   3  -7 -11   11.63    3.00
   3  -7 -11    7.24    3.24
   3  -7 -11    6.90    3.27
   3   7 -11    4.83    2.89
   3  -7 -10  162.86   11.36
   3  -7 -10  153.87   12.47
   3   7 -10  157.18   10.61
   3   7 -10  177.73   11.69
   3  -7 -10  162.13   11.32
   3   7 -10  164.73   11.95
   3  -7 -10  177.06   20.07
   3   7  -9    8.76    2.68
   3   7  -9    8.70    4.20
   3  -7  -9    9.28    2.92
   3   7  -9   10.43    3.39
   3  -7  -9    8.95    3.13
   3   7  -9   17.36    3.73
   3  -7  -9    7.28    5.84
   3   7  -9    5.41    5.32
   3   7  -8  394.53   22.07
   3   7  -8  327.00   19.60
   3   7  -8  351.75   19.74
   3  -7  -8  393.36   20.68
   3   7  -8  382.66   20.57
   3  -7  -8  384.35   20.32
   3   7  -8  375.53   20.61
   3  -7  -8  370.99   28.89
   3   7  -8  341.71   28.87
   3  -7  -7    2.37    2.22
   3   7  -7    4.80    2.50
   3  -7  -7    0.64    2.77
   3   7  -7    3.12    1.75
   3   7  -7    2.54    1.73
   3  -7  -7    2.27    2.09
   3   7  -7    0.98    1.80
   3   7  -7    6.34    2.59
   3  -7  -7    4.78    2.25
   3   7  -7    3.30    2.42
   3   7  -7   -1.97    3.52
   3  -7  -7    1.83    3.59
   3   7  -6   31.51    3.72
   3  -7  -6   37.63    3.80
   3   7  -6   40.13    4.62
   3   7  -6   35.47    7.14
   3  -7  -5   40.96    3.79
   3   7  -5   46.73    3.99
   3  -7  -5   37.53    6.77
   3   7  -5   43.48    7.18
   3  -7  -4  110.10   10.39
   3   7  -4  103.38   10.48
   3   7  -4  121.43    7.24
   3  -7  -3  159.72   12.05
   3  -7  -3  148.03   10.47
   3   7  -3  161.29    8.93
  -3   7   3  144.95    8.77
  -3   7   2  323.65   17.37
   3   7  -2  263.15   18.03
   3  -7  -2  286.80   18.22
  -3   7   2  276.10   15.90
   3   7  -2  266.83   14.61
  -3   7   1   50.54    5.47
   3   7  -1   41.11    5.77
   3  -7  -1   56.33    6.43
  -3   7   0 1273.60   64.97
   3   7   0 1375.73   67.68
  -3   7  -1  179.30   13.84
   3   7   1  182.04   14.91
  -3   7  -2 2089.56  102.99
   3   7   2 2097.10  104.23
  -3   7  -3   77.31    9.95
   3   7   3   79.00    9.38
  -3  -7  -4  537.05   32.74
  -3   7  -4  551.70   33.54
  -3   7  -5    7.90    2.77
  -3  -7  -5    7.66    2.47
  -3   7  -5    8.54    2.68
  -3   7  -5    2.15    3.45
  -3  -7  -5    7.91    5.71
  -3  -7  -5    8.96    4.98
   3   7   5    9.91    4.40
  -3   7  -6   11.28    3.37
  -3  -7  -6    2.40    2.32
  -3   7  -6   11.47    3.65
  -3  -7  -6    4.02    4.56
   3   7   6    8.97    3.81
  -3   7  -6    9.86    5.59
  -3  -7  -6    2.27    4.47
  -3   7  -7   -1.37    2.74
   3   7   7   -1.87    3.67
  -3   7  -7   -0.76    2.71
  -3  -7  -7    1.37    2.75
  -3   7  -7   -2.76    6.97
  -3  -7  -7   -2.54    6.43
  -3  -7  -8   37.61    4.22
  -3   7  -8   38.00    5.83
  -3  -7  -8   36.63    5.52
  -3   7  -8   41.85    5.68
  -3   7  -8   29.43    9.86
  -3  -7  -8   43.39   10.09
  -3  -7  -9   13.33    2.72
  -3  -7  -9    5.41    4.88
  -3   7  -9   23.52    8.17
  -3   7  -9   13.51    4.06
  -3   7  -9   10.95    3.74
  -3  -7  -9   14.47    3.94
  -3   7 -10   49.91    5.56
  -3   7 -10   40.23    5.75
  -3  -7 -10   46.17    5.84
  -3  -7 -10   48.44    5.24
  -3   7 -11    4.23    2.90
  -3  -7 -11    2.20    2.60
  -3  -7 -11    0.83    2.13
  -3  -7 -12   19.32    2.62
  -3   7 -12   20.14    2.72
   3  -8 -13 1009.48   47.63
   3   8 -12    0.45    2.29
   3  -8 -12   -1.85    2.56
   3  -8 -12   -0.93    2.43
   3  -8 -11 1205.59   61.60
   3   8 -11 1332.25   60.83
   3  -8 -11 1219.09   60.14
   3  -8 -10   -0.93    3.59
   3  -8 -10   -2.46    5.57
   3   8 -10   13.78    6.24
   3  -8 -10    0.59    2.52
   3   8 -10    3.72    3.36
   3  -8 -10    0.61    2.47
   3   8 -10   11.53    3.43
   3   8 -10    3.72    2.48
   3   8  -9  308.58   18.16
   3  -8  -9  297.36   17.92
   3  -8  -9  315.89   19.38
   3   8  -9  339.77   17.93
   3   8  -9  278.38   17.31
   3  -8  -9  315.82   26.96
   3   8  -9  317.75   28.23
   3  -8  -9  335.68   18.88
   3  -8  -9  320.46   18.00
   3   8  -9  309.25   18.32
   3  -8  -8    8.29    3.55
   3   8  -8   11.10    2.84
   3   8  -8   12.75    3.12
   3   8  -8   11.59    3.41
   3  -8  -8   12.05    3.31
   3   8  -8   10.33    4.05
   3  -8  -8    8.29    2.76
   3   8  -8    9.68    2.88
   3  -8  -8   16.76    6.06
   3   8  -8    6.88    4.88
   3   8  -7 1082.67   57.14
   3   8  -7 1104.65   56.73
   3  -8  -7 1254.22   57.19
   3  -8  -7 1273.58   57.77
   3   8  -7 1122.93   55.77
   3   8  -7 1154.85   56.09
   3  -8  -7 1190.21   56.60
   3   8  -7 1156.16   56.24
   3  -8  -7 1195.44   65.03
   3   8  -7 1152.78   65.41
   3  -8  -7 1238.81   56.01
   3   8  -7 1114.88   55.93
   3   8  -6    0.53    1.75
   3   8  -6    1.77    1.74
   3  -8  -6   -0.76    1.75
   3   8  -6    3.22    1.77
   3   8  -6   -0.58    1.98
   3   8  -6    2.43    1.59
   3  -8  -6    1.52    2.98
   3   8  -6   -1.60    2.86
   3  -8  -5 1138.42   50.95
   3   8  -5 1007.62   50.86
   3  -8  -5 1159.77   57.79
   3   8  -5 1026.82   57.04
   3   8  -4   40.06    3.78
   3  -8  -4   37.67    5.98
   3   8  -4   53.95    7.11
  -3   8   3 5893.86  254.17
   3  -8  -3 5122.57  251.30
   3   8  -3 5592.03  249.39
   3   8  -3 5411.96  249.29
   3  -8  -2  102.41    9.04
  -3   8   2   90.44    7.32
  -3   8   2  112.91    8.99
   3   8  -2   93.21    6.46
  -3   8   1  992.74   47.73
   3   8  -1  868.19   47.93
   3  -8  -1  951.74   48.04
   3   8  -1  948.78   45.09
  -3   8   0   21.73    4.33
   3   8   0   19.82    5.05
   3   8   1 2465.87  120.87
  -3   8  -1 2445.23  118.40
  -3   8  -2    1.28    2.51
   3   8   2    1.55    2.77
  -3   8  -3  506.48   32.30
   3   8   3  492.75   34.87
   3   8   4    7.62    3.88
   3   8   4    6.56    5.82
  -3   8  -4    5.34    4.29
  -3  -8  -4   11.50    2.40
  -3  -8  -4   11.72    5.20
  -3   8  -5 1837.13   91.26
  -3  -8  -5 2082.52   91.33
   3   8   5 1872.40   98.79
  -3   8  -5 1813.21  100.96
  -3  -8  -5 2092.76  101.76
  -3   8  -5 1905.07   91.73
  -3  -8  -5 1947.78  100.59
   3   8   6   -1.81    3.54
  -3   8  -6    1.34    2.56
  -3   8  -6   -0.66    2.35
  -3  -8  -6   -0.59    2.33
  -3   8  -6    2.41    5.10
  -3  -8  -6    2.22    4.36
  -3   8  -7 1598.46   73.91
  -3   8  -7 1439.94   73.57
  -3  -8  -7 1519.40   73.36
  -3   8  -7 1521.18   86.16
  -3  -8  -7 1540.92   85.19
  -3   8  -8    4.48    3.12
  -3  -8  -8    5.21    4.67
  -3   8  -8   11.26    6.38
  -3   8  -8    8.81    3.58
  -3  -8  -8    7.25    3.09
  -3  -8  -9 1979.53   92.24
  -3   8  -9 1907.52   94.90
  -3  -8  -9 1997.50   94.62
  -3   8  -9 2038.51   94.65
  -3   8 -10   46.52    5.89
  -3  -8 -10   49.73    5.75
  -3  -8 -10   62.36    5.71
  -3   8 -10   56.78    5.88
  -3   8 -10   50.07    5.68
  -3  -8 -11   41.84    4.21
  -3   8 -11   44.97    4.45
  -3  -8 -11   35.15    4.09
  -3  -8 -12    3.06    1.39
  -3   8 -12    4.46    1.72
   3  -9 -13    8.40    1.84
   3  -9 -12  330.65   17.56
   3  -9 -12  299.08   17.36
   3   9 -12  338.68   17.68
   3  -9 -11   16.79    3.14
   3   9 -11   15.76    3.66
   3  -9 -11   14.49    3.78
   3   9 -10   23.97    4.57
   3  -9 -10   20.98    3.83
   3  -9 -10   17.15    4.91
   3   9 -10   18.52    3.63
   3   9  -9    2.46    4.40
   3  -9  -9   -0.83    3.51
   3   9  -9    1.73    2.17
   3   9  -9    0.57    2.18
   3   9  -9    5.04    3.11
   3  -9  -9    1.16    2.54
   3  -9  -9   -5.47    3.42
   3  -9  -9   -1.11    2.55
   3   9  -9   -1.22    2.59
   3  -9  -8  759.51   38.93
   3   9  -8  792.36   39.36
   3   9  -8  778.29   38.87
   3   9  -8  714.46   38.74
   3  -9  -8  812.79   40.64
   3  -9  -8  839.63   38.89
   3   9  -8  791.99   38.95
   3  -9  -8  752.43   47.77
   3   9  -8  682.48   47.45
   3   9  -7    6.42    2.39
   3   9  -7    7.54    2.78
   3  -9  -7    6.01    2.45
   3   9  -7    6.46    3.00
   3   9  -7    4.40    2.43
   3   9  -7   10.70    2.79
   3  -9  -7    6.96    2.96
   3  -9  -7    3.56    3.50
   3   9  -7    5.62    4.25
   3  -9  -7    9.37    2.42
   3   9  -7    6.12    2.49
   3   9  -6   35.45    4.09
   3   9  -6   44.37    4.41
   3   9  -6   38.24    4.88
   3  -9  -6   43.95    7.49
   3   9  -6   48.36    7.90
   3   9  -6   37.40    4.34
   3   9  -6   36.09    4.57
   3  -9  -6   40.71    4.07
   3   9  -5   22.66    2.96
   3   9  -5   16.70    2.99
   3  -9  -5   12.68    5.04
   3   9  -5   21.96    5.03
   3   9  -4 1120.35   53.63
  -3   9   4 1139.88   59.46
   3   9  -3   94.16    6.49
   3   9  -3   93.38    6.49
  -3   9   3   91.57    9.28
   3  -9  -3   79.58    7.52
   3   9  -2  399.83   20.61
  -3   9   2  389.71   23.61
   3   9  -1    0.78    2.25
   3  -9  -1    0.74    2.04
  -3   9   1    0.76    2.00
  -3   9   1    1.12    1.14
   3   9  -1   -0.40    1.65
  -3   9   0   22.25    4.61
   3  -9   0   23.96    2.98
   3   9   0   16.26    3.57
   3  -9   0   17.45    3.72
   3   9   1   44.34    7.52
  -3   9  -1   39.39    6.32
   3   9   2  781.70   46.38
  -3   9  -2  770.93   43.84
   3   9   3   21.43    6.67
   3   9   3   11.64    6.77
  -3   9  -3   21.06    5.56
   3   9   4   19.39    6.77
  -3   9  -4   20.81    3.06
  -3   9  -4   19.07    5.79
  -3  -9  -4   15.87    4.83
  -3   9  -5    6.39    2.86
  -3   9  -5    7.71    2.47
  -3  -9  -5    2.47    2.14
  -3   9  -5   10.12    4.59
  -3  -9  -5   11.18    5.17
  -3  -9  -6  467.01   23.52
  -3   9  -6  380.60   23.18
  -3   9  -6  461.35   24.29
  -3   9  -6  383.84   31.30
  -3  -9  -6  408.70   31.31
  -3   9  -7    8.04    3.47
  -3   9  -7    2.54    4.55
  -3  -9  -7    7.08    5.00
  -3   9  -7    7.90    2.65
  -3  -9  -7    3.89    2.22
  -3   9  -8  227.28   15.13
  -3   9  -8  218.04   15.04
  -3  -9  -8  246.09   15.05
  -3   9  -8  235.15   23.57
  -3  -9  -9    1.99    1.88
  -3   9  -9   -0.70    2.89
  -3   9  -9    1.47    3.00
  -3  -9  -9   -0.67    2.71
  -3   9 -10   54.85    6.15
  -3  -9 -10   67.42    6.39
  -3   9 -10   69.72    6.37
  -3  -9 -11    6.03    2.12
  -3  -9 -12   12.20    1.78
  -3   9 -12   16.12    2.26
   3 -10 -13   42.49    3.26
   3 -10 -12   -0.78    1.93
   3  10 -11  331.31   18.00
   3 -10 -11  295.05   18.90
   3 -10 -10    1.00    2.20
   3  10 -10    3.63    3.18
   3 -10 -10    1.91    4.31
   3  10 -10   -0.55    2.16
   3  10 -10   -0.54    2.04
   3  10  -9  358.46   19.33
   3  10  -9  331.35   19.15
   3 -10  -9  312.36   20.42
   3 -10  -9  318.63   18.71
   3  10  -9  365.48   19.84
   3  10  -8   14.90    3.79
   3 -10  -8    7.77    2.83
   3  10  -8   12.88    3.26
   3 -10  -8   16.45    4.55
   3  10  -8   12.05    3.09
   3 -10  -7  635.96   34.40
   3  10  -7  662.91   33.31
   3  10  -7  665.08   34.32
   3  10  -7  658.59   33.63
   3  10  -7  590.73   39.86
   3  10  -7  668.78   33.62
   3 -10  -7  656.03   33.39
   3  10  -6    2.62    2.29
   3  10  -6    0.53    1.99
   3  10  -6   -1.00    2.16
   3  10  -6   -1.49    2.39
   3  10  -6    0.48    1.85
   3  10  -5   94.98    6.88
   3  10  -5   95.49    7.19
  -3  10   5   75.91   10.28
   3 -10  -5   97.39   10.48
   3  10  -4   11.17    2.34
   3  10  -4   14.16    2.67
  -3  10   3  549.20   30.45
   3  10  -3  486.99   25.08
   3  10  -3  517.83   25.30
  -3  10   2    1.03    2.34
  -3  10   1  893.82   41.35
   3  10  -1  824.59   42.05
   3  10   0   29.45    4.39
   3 -10   0   45.14    4.22
   3  10   0   45.70    8.09
   3  10   1   26.69    6.63
   3  10   2   -1.94    4.11
   3  10   3  509.14   33.77
   3  10   3  509.08   35.88
   3  10   4   94.56   13.85
   3  10   4  114.34   15.66
  -3  10  -4  113.66   12.51
  -3  10  -5   90.36    7.39
  -3  10  -5  111.55    8.67
  -3  10  -5   90.91   12.07
  -3  10  -6   36.03    4.94
  -3  10  -6   30.24    7.85
  -3  10  -6   26.88    4.03
  -3  10  -7  356.63   20.19
  -3  10  -7  305.60   18.97
  -3  10  -8   45.82    6.13
  -3  10  -8   45.03    5.63
  -3  10  -8   60.30    6.26
  -3  10  -9  322.40   18.53
  -3 -10  -9  309.48   16.57
  -3  10  -9  326.32   18.32
  -3  10  -9  277.97   17.83
  -3  10 -10   -0.53    2.57
  -3  10 -10   -0.55    2.15
  -3 -10 -11  169.05    9.69
  -3  10 -11  160.68   10.07
   3 -11 -12  801.27   38.62
   3 -11 -11    5.04    3.16
   3  11 -10  434.33   24.02
   3 -11 -10  434.81   26.29
   3 -11 -10  474.62   24.90
   3  11 -10  465.16   24.68
   3  11  -9    4.47    2.52
   3  11  -9    9.06    3.15
   3 -11  -9    6.49    4.17
   3 -11  -9   10.70    2.90
   3  11  -9    5.78    3.46
   3  11  -8  677.94   37.59
   3  11  -8  725.98   36.94
   3  11  -8  757.25   37.43
   3 -11  -8  683.95   36.29
   3  11  -8  765.59   37.50
   3 -11  -8  774.92   38.52
   3  11  -7    4.53    2.85
   3  11  -7    8.12    2.89
   3 -11  -7    2.72    2.15
   3  11  -7    9.00    3.34
   3  11  -7    9.61    2.98
   3 -11  -7   10.31    3.59
  -3  11   6  323.35   25.80
   3  11  -6  354.22   19.34
   3  11  -6  349.92   19.21
   3  11  -6  335.70   19.42
   3  11  -6  353.26   20.40
   3  11  -5   30.35    4.12
  -3  11   5   30.70    6.69
   3  11  -4  486.57   24.75
   3  11  -4  436.43   24.39
  -3  11   4  529.43   31.31
   3  11  -3   11.98    2.55
  -3  11   3    5.28    3.83
   3  11  -2 2861.87  131.66
  -3  11   2 3035.40  130.69
   3  11  -2 2650.44  131.23
   3  11  -2 2786.01  131.96
  -3  11   2 2760.51  136.23
  -3  11   1   24.20    2.97
   3  11  -1   15.24    2.97
   3 -11   0 1160.75   54.84
   3  11   0 1103.11   55.37
   3  11   0 1291.80   65.84
   3  11   1   -1.03    1.80
   3  11   1   -1.99    4.77
   3  11   2  323.06   26.16
  -3  11  -3   20.03    3.00
   3  11   3   28.35    8.51
  -3  11  -4  288.46   16.28
   3  11   4  284.46   26.11
  -3  11  -5   28.31    4.18
   3  11   5   29.92    9.06
  -3 -11  -5   24.40    7.63
  -3  11  -5   26.45    4.56
  -3  11  -6  902.17   45.34
   3  11   6  823.33   56.93
  -3 -11  -6  903.69   55.82
  -3  11  -6  940.65   46.50
  -3  11  -7    0.65    2.67
   3  11   7   -2.82    5.54
  -3 -11  -7    2.40    5.43
   3  11   7    1.19    2.28
   3  11   8  982.42   65.28
  -3  11  -8 1072.21   54.46
  -3  11  -8 1144.33   54.23
  -3 -11  -9    2.28    1.93
  -3  11  -9    3.90    3.03
  -3  11  -9    1.19    2.70
  -3  11 -10  177.05   11.54
  -3  11 -10  194.72   11.82
  -3 -11 -11   -1.09    1.57
  -3  11 -11    1.09    1.90
  -3  11 -11    0.62    1.55
   3 -12 -12    2.06    1.63
   3 -12 -11  152.41   11.18
   3 -12 -10    4.48    4.00
   3 -12 -10    3.47    3.08
   3  12 -10    4.98    2.43
   3 -12  -9   85.89    8.12
   3  12  -9   68.35    6.91
   3 -12  -8   -0.50    2.02
   3 -12  -8    0.78    3.14
  -3  12   8   -4.56    5.47
   3  12  -8   -0.79    3.27
   3  12  -8   -0.68    2.63
   3 -12  -7   63.84    6.03
  -3  12   7   80.39   12.16
   3  12  -7   60.67    7.03
   3  12  -7   72.09    6.96
   3 -12  -7   63.59    6.95
   3  12  -6   68.88    6.74
   3  12  -6   81.72    7.71
  -3  12   6   62.23   10.30
   3  12  -5    7.58    2.77
  -3  12   5    1.83    4.14
   3  12  -4   38.79    4.63
   3  12  -4   42.07    4.77
  -3  12   4   39.38    7.76
   3  12  -3 1321.35   64.15
  -3  12   3 1376.26   70.49
   3  12  -2    1.07    1.96
  -3  12   2    3.38    1.63
   3  12  -2    4.59    1.88
   3  12  -2    4.80    2.20
  -3  12   2    1.32    2.79
   3  12  -1   60.55    6.18
  -3  12   1   64.84    5.27
   3 -12  -1   67.59    5.81
   3  12   0    3.47    2.17
   3  12   0   -0.55    1.88
   3 -12   0    0.44    1.79
   3  12   0    6.33    4.14
   3  12   1  699.90   44.45
   3  12   1  659.25   34.39
   3  12   1  687.80   34.67
  -3  12  -2    0.74    1.36
   3  12   2    2.37    4.25
   3  12   2   -0.58    1.87
   3  12   2   -0.58    2.14
   3  12   3  756.72   37.82
  -3  12  -3  738.51   36.57
   3  12   3  709.59   48.47
  -3  12  -4    6.55    2.58
   3  12   4   19.35    7.35
  -3 -12  -4   17.15    6.65
   3  12   4    6.32    3.06
  -3  12  -5 1014.83   48.35
   3  12   5  840.38   59.91
  -3 -12  -5  952.69   58.59
  -3  12  -5  949.70   49.22
   3  12   5  995.48   48.64
  -3  12  -6    8.91    3.26
   3  12   6    2.93    6.22
  -3 -12  -6    9.54    5.75
   3  12   6   15.33    3.54
  -3  12  -6   13.50    4.05
  -3  12  -7  550.28   27.72
   3  12   7  497.78   26.76
  -3 -12  -7  474.45   36.06
  -3  12  -8   -0.72    2.99
  -3  12  -8   -0.64    2.83
  -3  12  -9  351.35   19.06
  -3  12  -9  341.93   19.12
  -3 -12  -9  313.70   17.33
  -3  12 -10    4.07    2.12
  -3  12 -10    3.68    2.50
  -3 -12 -11   95.52    5.84
  -3  12 -11  101.42    6.48
  -3  12 -11   89.84    6.04
   3 -13 -12  279.37   14.28
   3 -13 -11    0.61    2.63
   3 -13 -10  715.64   35.37
   3 -13 -10  672.87   37.10
   3  13  -9   -0.67    2.92
   3  13  -9    3.86    2.47
   3 -13  -9    1.51    3.19
   3  13  -8  116.34    9.27
   3  13  -8   96.89    9.20
   3 -13  -8   97.71    9.04
  -3  13   7    4.40    3.94
   3  13  -7    2.82    2.99
   3  13  -7    2.56    3.05
   3 -13  -7    4.51    3.18
   3  13  -6 2108.71  101.62
   3  13  -6 2215.11  103.02
  -3  13   6 2099.68  110.83
   3  13  -5   36.83    5.12
   3  13  -5   40.22    5.66
  -3  13   5   38.72    8.38
   3  13  -4  342.23   18.96
  -3  13   4  292.98   23.96
   3  13  -3    7.13    2.63
   3  13  -3    9.25    2.72
  -3  13   3    9.57    4.25
   3  13  -2 1893.14   94.04
   3  13  -2 1991.06   94.94
   3  13  -2 1950.63   94.39
  -3  13   2 2123.30   93.36
   3 -13  -1   59.91    5.94
   3  13  -1   84.38    7.15
   3  13   0  399.56   21.89
   3  13   0  377.19   21.47
   3  13   1  124.23   15.56
   3  13   1   97.79    8.23
   3  13   1  105.19    8.34
   3  13   2  693.62   48.10
   3  13   2  708.64   37.30
  -3  13  -2  756.79   35.92
   3  13   2  721.42   37.33
   3  13   3    0.65    2.60
  -3  13  -3   -2.32    1.85
   3  13   3    2.79    4.47
  -3  13  -4  557.09   28.94
   3  13   4  549.44   41.96
  -3 -13  -4  577.51   39.21
   3  13   4  553.49   29.70
  -3  13  -5  159.55   10.94
   3  13   5  136.62   18.74
  -3 -13  -5  151.44   18.16
  -3  13  -5  167.89   12.14
   3  13   5  153.54   11.03
  -3  13  -6  438.17   23.53
   3  13   6  353.14   34.08
  -3 -13  -6  404.87   32.59
   3  13   6  423.15   23.28
  -3  13  -6  413.77   24.25
  -3  13  -7    0.66    2.83
   3  13   7   -2.89    5.18
   3  13   7   -0.57    1.97
  -3 -13  -7   -2.33    5.28
  -3  13  -8  936.50   45.73
  -3  13  -8  887.60   45.83
  -3  13  -9   44.18    5.00
  -3 -13  -9   33.64    3.67
  -3  13  -9   30.47    4.36
  -3  13 -10  178.22   10.77
  -3  13 -10  178.14   10.69
  -3  13 -11    0.22    1.08
  -3 -13 -11    0.50    0.88
  -3  13 -11    0.27    1.23
   3 -14 -11  622.18   30.83
   3 -14 -11  640.67   32.23
   3 -14 -10    8.07    2.79
   3 -14 -10    8.53    3.58
   3  14  -9  540.31   27.96
   3  14  -9  498.36   28.31
   3 -14  -9  493.34   29.18
   3 -14  -9  527.18   28.27
   3 -14  -8   18.56    4.28
   3  14  -8    8.02    3.68
   3  14  -8   10.67    3.92
   3 -14  -7  602.21   33.09
   3  14  -7  606.65   33.16
   3  14  -7  675.23   34.53
  -3  14   6    4.26    3.85
   3  14  -6    8.80    3.76
   3  14  -6   11.47    3.84
  -3  14   5  637.92   41.64
   3  14  -5  666.51   34.33
   3  14  -5  643.39   35.22
   3  14  -4    0.65    2.26
  -3  14   4   -3.75    3.97
   3  14  -4    5.58    3.72
   3  14  -3 1217.74   57.42
  -3  14   3 1145.81   63.94
   3  14  -3 1122.96   56.94
   3  14  -2   23.91    4.00
   3  14  -2   20.77    4.14
  -3  14   2   24.40    3.37
   3  14  -2   21.52    3.87
   3  14  -1 2826.58  134.34
   3 -14  -1 2895.37  133.24
   3  14   0   22.18    4.14
   3  14   0   17.16    3.90
   3  14   1   52.82    5.95
   3  14   1   53.27   10.73
   3  14   1   50.28    5.86
  -3  14  -2   11.10    2.44
   3  14   2    2.82    5.05
   3  14   2    7.99    3.22
   3  14   2    4.04    2.82
   3  14   3 1516.39   88.47
   3  14   3 1527.44   73.83
  -3  14  -3 1526.95   72.40
  -3  14  -4    4.46    2.60
   3  14   4   -3.11    6.10
  -3 -14  -4    2.33    5.27
   3  14   4   -0.69    2.54
  -3  14  -5  803.76   39.56
   3  14   5  783.23   54.26
  -3 -14  -5  728.88   49.16
  -3  14  -5  708.56   40.31
   3  14   5  823.53   39.99
  -3  14  -6    7.17    3.10
   3  14   6    3.06    6.01
   3  14   6    7.57    3.00
  -3 -14  -6    2.37    4.24
  -3  14  -7 2604.49  122.22
  -3  14  -8   15.72    3.51
  -3  14  -8   17.87    3.72
  -3  14  -9  314.64   16.69
  -3 -14  -9  275.93   15.16
  -3  14  -9  298.19   16.50
  -3  14 -10    6.83    2.04
  -3 -14 -10    6.75    1.72
  -3  14 -10    9.34    2.32
   3 -15 -11   -0.28    1.54
   3 -15 -10    4.96    2.50
   3 -15 -10    3.49    3.22
   3 -15  -9    1.30    3.09
   3  15  -9    1.42    1.97
   3  15  -9   -0.60    0.96
   3  15  -9    7.00    3.42
   3 -15  -9    6.81    3.91
   3 -15  -8   25.31    4.68
   3  15  -8   27.53    5.06
   3  15  -8   32.81    5.28
   3 -15  -7   18.85    4.32
   3  15  -7   13.47    4.60
   3  15  -7   15.20    4.28
   3 -15  -6  231.50   14.53
   3  15  -6  214.83   14.49
   3  15  -6  193.23   15.08
   3  15  -5    2.68    3.43
   3  15  -4    5.67    3.12
   3  15  -4    2.76    2.54
  -3  15   4    1.96    3.85
   3  15  -3   32.23    4.78
   3  15  -3   39.66    5.78
   3  15  -3   33.10    4.87
   3  15  -2   34.90    5.49
   3  15  -2   41.36    5.31
   3 -15  -2   41.37    5.32
   3  15  -1   48.95    5.97
   3 -15  -1   42.24    4.94
   3  15   0    4.92    2.93
   3  15   0    4.44    2.79
  -3  15   0    8.38    5.00
   3  15   1    2.11    2.76
   3  15   1    3.61    2.89
   3  15   2  193.59   13.42
   3  15   2  241.32   24.28
  -3  15  -2  204.67   12.07
   3  15   2  196.68   13.38
   3  15   3  117.80    9.41
   3  15   3  100.80   16.78
  -3  15  -3  118.13    8.41
   3  15   4  441.66   23.87
  -3  15  -4  409.79   22.14
  -3 -15  -4  361.72   30.52
   3  15   4  351.59   34.09
   3  15   4  386.91   22.69
  -3  15  -5   50.94    5.72
  -3 -15  -5   30.95    9.21
   3  15   5   41.56   11.66
  -3  15  -5   56.99    6.76
   3  15   5   51.99    5.92
  -3  15  -6   13.43    3.48
  -3 -15  -6   18.26    6.88
   3  15   6   15.22    7.34
   3  15   6   19.97    3.67
  -3  15  -7   -1.22    2.80
  -3  15  -8    2.88    2.49
  -3  15  -8    7.93    2.98
  -3  15  -8    3.73    2.87
  -3  15  -9   14.09    2.93
  -3 -15  -9   16.61    2.34
  -3  15  -9   16.86    2.89
  -3  15 -10  173.75    9.84
  -3  15 -10  191.93    9.89
   3 -16 -11  564.47   27.03
   3 -16 -10   11.64    3.36
   3 -16 -10   18.45    2.94
   3 -16  -9  402.13   11.26
   3  16  -9   -1.27    1.25
   3 -16  -8   24.19    5.51
   3 -16  -8   24.74    4.61
   3  16  -8   34.21    5.22
   3  16  -8   33.43    5.04
   3 -16  -7  623.92   33.39
   3  16  -7  624.20   33.83
   3  16  -7  666.35   34.96
   3 -16  -6   11.94    3.80
   3  16  -6   10.28    4.19
   3  16  -6    6.96    3.64
   3  16  -5  557.01   31.52
   3  16  -4  157.09   11.41
   3  16  -4  142.44   10.94
   3  16  -3  282.69   17.53
   3  16  -3  292.96   18.53
   3  16  -3  277.00   17.61
   3  16  -2   -2.49    3.45
   3  16  -2    7.65    3.41
   3 -16  -2   -0.65    2.51
   3  16  -1 1472.96   71.26
   3  16  -1 1437.34   70.81
   3 -16  -1 1439.92   69.41
  -3  16   0   43.15   10.77
   3  16   0   84.26    7.98
   3  16   1   48.92    6.00
   3  16   1   47.94    6.13
   3  16   2    0.74    2.63
   3  16   2   -0.72    2.59
   3  16   2   -3.17    6.22
   3  16   3 1640.89   75.73
  -3  16  -3 1522.19   73.83
   3  16   3 1440.30   90.19
   3  16   4   60.21    6.80
  -3  16  -4   55.21    5.67
   3  16   4   64.40    6.50
   3  16   4   49.23   12.28
  -3  16  -5  425.20   22.08
   3  16   5  334.35   32.90
  -3  16  -5  353.03   22.60
   3  16   5  414.37   22.24
  -3 -16  -5  350.48   30.00
   3  16   6   15.89    3.32
  -3  16  -6   15.19    3.74
  -3  16  -7  858.61   42.70
  -3  16  -8   18.01    3.27
  -3  16  -8   13.10    3.17
  -3  16  -9  199.24   10.99
  -3 -16  -9  180.62    9.85
  -3  16 -10    0.76    1.34
   3 -17 -10  274.21   14.34
   3 -17 -10  273.13   15.85
   3 -17  -9    4.76    2.23
   3 -17  -8  106.48    9.36
   3 -17  -8  105.49    8.22
   3  17  -8   92.35    8.62
   3 -17  -7   -0.84    4.04
   3 -17  -7   -1.27    3.06
   3  17  -7   -1.49    3.53
   3  17  -7    1.74    3.34
   3 -17  -6  525.57   28.66
   3  17  -6  551.97   30.74
   3 -17  -5   67.60    7.07
   3  17  -5   70.10    8.43
   3  17  -4  199.87   13.23
   3  17  -4  184.13   12.73
   3 -17  -4  155.54   12.54
   3  17  -3    6.32    4.10
   3  17  -3    7.78    3.31
   3 -17  -3    3.67    3.17
   3  17  -2 1243.66   59.76
  -3  17   2 1105.52   74.58
   3  17  -2 1170.29   58.90
   3 -17  -2 1152.65   57.71
  -3  17   1    6.81    6.11
   3  17  -1   11.91    4.00
   3  17   0   31.36    5.43
   3  17   1   46.50    6.03
  -3  17  -1   40.89    4.79
   3  17   2   96.28    8.73
  -3  17  -2   96.52    7.81
   3  17   2  105.18    8.74
   3  17   3   -1.47    2.77
   3  17   3   -3.31    5.30
   3  17   4   54.66    6.45
   3  17   4   39.19   10.34
  -3 -17  -4   35.00    9.01
   3  17   4   46.81    5.70
   3  17   5   -0.63    2.36
  -3  17  -5    3.20    3.56
  -3  17  -5    1.72    2.43
  -3  17  -6  293.85   16.96
  -3  17  -7    0.50    2.36
  -3  17  -7    1.20    2.68
  -3  17  -8  352.60   18.84
  -3  17  -8  354.28   19.34
  -3 -17  -9    1.78    0.95
   3 -18 -10   16.56    2.07
   3 -18  -9   14.87    3.38
   3 -18  -9   11.39    2.40
   3  18  -8   24.14    4.21
   3 -18  -8   23.45    4.70
   3 -18  -8   21.39    3.75
   3  18  -7  388.53   22.09
   3 -18  -7  358.10   21.46
   3 -18  -7  350.51   20.06
   3  18  -6   49.32    6.74
   3  18  -6   44.33    6.42
   3 -18  -6   40.14    5.93
   3 -18  -6   40.76    5.24
   3  18  -5   47.09    6.56
   3 -18  -5   32.06    5.55
   3 -18  -5   42.32    5.34
  -3  18   4   27.31   10.90
   3 -18  -4   30.15    5.20
   3 -18  -3    7.21    3.48
   3  18  -3   10.24    3.75
  -3  18   3    3.88    5.39
   3  18  -3   12.00    4.06
   3 -18  -2   12.25    3.39
   3  18  -2    7.22    4.37
   3  18  -2   13.10    3.86
  -3  18   2   22.43    8.99
   3  18  -1   27.28    5.42
  -3  18   1   30.42    9.45
   3  18   0   53.35    6.69
   3  18   1  440.21   27.09
   3  18   1  488.67   27.29
  -3  18  -1  515.97   25.64
   3  18   2   -0.73    2.63
  -3  18  -2   -0.57    2.40
  -3  18  -3   10.57    3.34
   3  18   4   27.04    4.78
  -3  18  -4   26.25    4.52
  -3  18  -5  195.52   13.04
  -3  18  -6    7.96    3.38
  -3  18  -7   60.76    5.67
  -3  18  -7   68.97    6.27
  -3  18  -7   68.38    6.17
  -3  18  -8    0.82    1.86
   3 -19  -9   26.27    2.84
   3  19  -8  676.76   34.31
   3 -19  -8  657.92   34.08
   3  19  -8  648.74   33.65
   3 -19  -7    6.60    2.65
   3 -19  -7    4.14    3.28
   3  19  -7    3.77    3.15
   3 -19  -6  762.39   38.64
   3  19  -6  795.56   41.13
   3 -19  -6  721.38   39.77
   3  19  -6  856.73   41.55
   3 -19  -5    6.18    2.86
   3 -19  -5    6.71    3.59
   3  19  -5   10.04    4.45
   3 -19  -4  708.39   35.91
   3 -19  -4  701.12   36.85
   3  19  -3   34.02    5.86
   3 -19  -3   26.60    4.63
   3  19  -2 1467.00   70.68
   3  19  -2 1514.37   71.55
   3  19  -1   14.10    4.56
   3  19   0  468.90   27.69
   3  19   0  526.22   28.33
   3  19   1   13.06    4.04
   3  19   1   18.94    4.39
   3  19   2  115.70   10.21
   3  19   2  124.77    9.89
  -3  19  -2  139.67    9.36
  -3  19  -3    5.29    2.62
   3  19   3    1.73    3.02
  -3  19  -4  526.22   26.51
   3  19   4  449.95   26.52
  -3  19  -5   31.49    4.56
  -3  19  -6  692.55   35.08
  -3  19  -7    0.89    2.05
  -3  19  -7    4.55    2.06
  -3  19  -7   -0.77    1.66
  -3 -19  -8  494.86   25.57
  -3  19  -8  674.66   27.39
   3 -20  -9   41.12    2.99
   3  20  -8    6.01    2.31
   3 -20  -8    3.00    2.31
   3  20  -8    2.23    2.12
   3 -20  -8    3.24    1.62
   3  20  -7   42.49    5.44
   3 -20  -7   33.02    4.66
   3  20  -6    2.37    3.10
   3  20  -6    6.13    3.01
   3 -20  -6    4.49    3.09
   3 -20  -6    6.73    2.29
   3 -20  -5  176.23   12.43
   3 -20  -5  187.51   11.39
   3  20  -4    1.75    3.71
   3 -20  -4   -1.97    2.63
   3 -20  -4    1.97    2.16
   3  20  -3  262.22   17.18
   3 -20  -3  249.15   15.47
   3  20  -2    4.37    3.89
   3  20  -2    3.86    2.97
   3  20  -1  395.70   23.56
   3  20   0    5.72    3.41
   3  20   0    6.36    3.61
   3  20   1   64.04    7.08
   3  20   1   66.87    7.31
  -3  20  -2   -1.00    2.28
   3  20   2   -2.28    2.79
  -3  20  -3  252.38   14.41
   3  20   3  244.55   15.86
   3  20   3  213.13   14.97
  -3  20  -4   11.51    3.10
   3  20   4    6.35    2.68
  -3  20  -4   13.21    3.63
   3  20   4    9.91    3.16
  -3  20  -5  113.12    8.26
   3  20   5  103.42    8.25
  -3  20  -6    2.28    2.22
   3  20   6   -0.43    1.73
  -3  20  -7  403.68   20.78
  -3  20  -8    6.75    1.61
   3 -21  -8  775.37   36.27
   3  21  -7    3.85    2.46
   3 -21  -6  194.67    8.62
   3  21  -6  233.22   10.68
   3 -21  -5    1.12    2.45
   3  21  -5    4.27    3.56
   3 -21  -4  378.53   21.25
   3  21  -4  405.75   23.13
   3  21  -3   -1.63    3.19
   3  21  -2  304.51   18.13
   3  21  -2  286.05   18.40
   3  21  -1   31.92    5.38
   3  21   0  564.30   32.28
   3  21   0  662.26   33.05
   3  21   1    4.35    3.08
   3  21   1    6.14    2.63
   3  21   2  213.94   14.28
   3  21   2  176.36   12.74
   3  21   3   60.56    6.27
   3  21   3   59.82    6.70
  -3  21  -3   72.69    6.03
   3  21   4  416.13   23.56
  -3  21  -4  459.75   23.20
   3  21   5    7.49    2.13
  -3  21  -5    2.16    2.06
  -3  21  -6  188.27   11.32
  -3  21  -6  192.15   11.05
  -3  21  -7    0.30    1.19
  -3  21  -7    0.26    1.25
   3  22  -7  388.67   20.49
   3  22  -7  380.76   20.18
   3  22  -6   23.62    4.00
   3  22  -5  132.96   10.35
   3  22  -4   70.50    7.72
   3  22  -4   68.87    7.10
   3  22  -3  656.41   34.63
   3  22  -2   15.89    3.94
   3  22  -1  255.32   16.12
   3  22   0   43.76    5.56
   3  22   0   60.57    6.32
   3  22   1  746.32   38.59
   3  22   1  706.98   37.05
   3  22   2    3.05    2.49
   3  22   2    0.74    3.08
   3  22   3   38.51    4.74
  -3  22  -3   37.17    3.88
   3  22   3   44.00    5.14
   3  22   4   -0.47    2.04
  -3  22  -4    1.82    1.84
  -3  22  -5  590.18   28.90
  -3  22  -6    5.31    1.41
   3  23  -6  249.71   14.72
   3  23  -6  261.40   14.52
   3  23  -5   -1.58    2.06
   3  23  -4    4.70    2.83
   3  23  -4    7.11    3.13
   3  23  -3   -0.61    2.43
   3  23  -3   -1.58    2.75
   3  23  -2    7.96    3.00
   3  23  -1   11.30    3.27
   3  23  -1   11.11    3.74
   3  23   0    3.89    2.52
  -3  23   0    1.27    1.88
   3  23   0    0.76    2.98
   3  23   1   25.41    4.01
   3  23   1   37.94    5.12
   3  23   2   64.68    6.20
   3  23   2   49.71    5.25
   3  23   3    4.90    2.00
   3  23   3    4.47    2.06
  -3  23  -5    5.54    1.87
   3  24  -5  156.43    9.91
   3  24  -4   57.00    5.55
   3  24  -4   58.32    5.32
   3  24  -3  190.09   11.61
   3  24  -3  140.51    9.98
   3  24  -2   -1.45    2.15
   3  24  -1  214.36   13.81
   3  24   0    7.40    2.68
   3  24   1  159.96   11.07
  -3  24  -1  176.26   10.10
  -3  24  -2   25.16    3.13
   3  24   2   20.05    3.23
  -3  24  -3  352.01   18.43
  -3  24  -4    8.99    1.82
   3  25  -3   21.21    2.79
   3  25  -3   24.99    3.29
   3  25  -2  140.03    8.47
   3  25  -1    5.35    2.41
   3  25   0  337.15   18.37
   3  25   1   19.31    2.85
   4   0 -14  107.07    6.58
   4   0 -13   19.68    3.45
   4   0 -12  448.67   24.54
   4   0 -12  472.32   25.79
   4   0 -11    9.74    3.83
   4   0 -11   13.25    3.23
   4   0 -11   12.21    4.35
   4   0 -10 4708.56  208.27
   4   0 -10 4154.97  223.31
   4   0 -10 4561.23  208.07
   4   0 -10 4341.01  206.17
   4   0  -9   50.18    5.65
   4   0  -9   53.37    6.46
   4   0  -9   63.99    7.34
   4   0  -9   40.77   10.48
   4   0  -9   56.61    5.89
   4   0  -9   74.69    7.15
   4   0  -8 2993.67  140.63
   4   0  -8 3132.13  142.18
   4   0  -8 3141.08  155.50
   4   0  -8 3047.14  141.14
   4   0  -8 3056.76  141.95
   4   0  -8 2950.56  142.41
   4   0  -8 3077.53  141.99
   4   0  -7   30.64    4.50
   4   0  -7   39.03    4.45
   4   0  -7   35.50    4.41
   4   0  -7   39.02    4.20
   4   0  -7   39.85    8.72
   4   0  -7   36.71    4.39
   4   0  -6 1161.42   53.98
   4   0  -6 1157.92   62.58
   4   0  -6 1081.66   53.85
   4   0  -5    7.29    2.03
   4   0  -5    5.78    3.48
   4   0  -5    8.98    2.24
   4   0  -4  709.19   39.54
   4   0  -4  675.93   33.48
   4   0  -4  696.86   40.77
   4   0  -3  174.65   14.49
   4   0  -3  207.23   16.45
   4   0  -2 1891.26   94.23
   4   0  -1  294.30   18.38
   4   0   0 1622.34   82.70
   4   0   0 1682.20   81.18
  -4   0  -1   22.78    3.90
   4   0   1   20.99    4.72
   4   0   1   30.14    5.81
   4   0   2 5551.87  254.60
   4   0   2 5950.40  261.66
  -4   0  -2 5456.65  257.77
   4   0   3   18.29    4.77
  -4   0  -3   24.87    5.06
  -4   0  -4  393.23   20.81
   4   0   4  423.08   26.98
  -4   0  -5    9.70    2.67
   4   0   5    9.03    4.53
  -4   0  -6 3225.24  149.19
  -4   0  -6 3241.05  158.05
  -4   0  -6 3248.67  150.39
   4   0   6 3304.80  158.11
  -4   0  -7   15.54    3.08
  -4   0  -7   15.68    5.45
  -4   0  -7   14.40    3.69
  -4   0  -7   21.90    8.71
  -4   0  -7   21.98    4.48
  -4   0  -8 2316.13  127.43
  -4   0  -8 2346.67  110.20
   4   0   8 2211.70  120.58
  -4   0  -8 2294.25  111.59
  -4   0  -8 2372.32  108.96
  -4   0  -9    8.10    4.51
  -4   0  -9   16.53    8.37
   4   0   9    6.88    5.52
  -4   0  -9    5.79    2.75
  -4   0 -10 1322.74   66.49
  -4   0 -10 1353.90   64.06
  -4   0 -11    9.89    3.18
  -4   0 -12  771.69   38.32
   4  -1 -14    3.64    1.62
   4   1 -14    2.33    1.70
   4  -1 -13   44.65    4.56
   4   1 -13   38.41    4.35
   4  -1 -12   -0.46    2.26
   4   1 -12    4.95    3.14
   4  -1 -12    5.67    3.59
   4   1 -12    2.23    3.62
   4  -1 -11  189.60   12.98
   4   1 -11  163.18   11.15
   4  -1 -11  178.04   11.41
   4   1 -11  173.02   12.90
   4  -1 -11  158.99   12.32
   4  -1 -10   14.05    4.14
   4  -1 -10    9.50    6.73
   4  -1 -10    8.63    3.86
   4   1 -10   22.36    4.68
   4   1 -10   14.18    3.26
   4  -1 -10   11.09    3.42
   4   1  -9   96.49    7.59
   4  -1  -9   91.98    7.56
   4  -1  -9  107.45    8.92
   4  -1  -9   91.08    8.91
   4   1  -9   98.64    8.90
   4  -1  -9   90.91    8.34
   4   1  -9   95.95    7.97
   4  -1  -9  110.22    8.33
   4  -1  -9  120.96   17.20
   4  -1  -8    9.95    6.30
   4  -1  -8    6.75    2.61
   4  -1  -8    5.76    3.00
   4  -1  -8    5.73    3.10
   4  -1  -8    9.73    3.34
   4  -1  -8    4.94    3.17
   4   1  -8    8.31    2.80
   4  -1  -8    7.44    2.96
   4   1  -8    2.71    2.18
   4  -1  -7  284.13   16.35
   4   1  -7  263.96   15.64
   4  -1  -7  293.84   16.43
   4  -1  -7  306.70   16.34
   4   1  -7  280.54   15.55
   4  -1  -7  291.32   15.70
   4  -1  -7  277.84   23.69
   4  -1  -7  240.64   16.06
   4  -1  -7  280.30   16.27
   4  -1  -6    3.46    3.92
   4   1  -6    0.86    1.95
   4  -1  -6    2.96    2.06
   4  -1  -6    1.73    1.77
   4  -1  -5   11.53    4.80
   4   1  -5   15.13    2.58
   4  -1  -5   10.45    2.32
   4  -1  -5   18.90    2.89
   4  -1  -4   -1.50    3.60
   4  -1  -4   -1.23    3.42
   4  -1  -4   -0.39    1.71
   4  -1  -3 1019.96   57.41
   4  -1  -3 1129.98   56.51
   4  -1  -2    8.78    3.78
   4  -1  -1 1709.63   83.20
   4  -1  -1 1749.50   85.53
  -4   1   0   49.62    4.50
   4  -1   0   52.22    6.53
   4   1   0   52.62    6.57
  -4   1  -1   89.68    7.16
   4   1   1   74.18    5.92
   4  -1   1  106.07   10.50
   4   1   1  117.24   10.96
   4   1   1   96.40    7.01
   4  -1   1   99.08    9.36
  -4  -1  -2   29.89    5.01
   4  -1   2   34.74    3.80
   4   1   2   53.00    7.57
   4  -1   2   34.19    6.22
   4   1   2   55.30    7.58
  -4   1  -3   66.84    5.28
   4  -1   3   82.39    5.83
  -4  -1  -3   79.60    8.75
  -4  -1  -3   82.25    5.61
   4   1   3   61.76    8.69
   4   1   3   73.15    9.03
   4  -1   3   79.07    9.60
  -4  -1  -4    7.64    2.17
   4  -1   4   11.55    4.34
   4   1   4    8.26    3.99
   4  -1   5    7.85    4.37
   4   1   5    4.41    3.74
  -4   1  -5   12.28    4.93
  -4  -1  -5   14.64    3.11
  -4   1  -5    5.44    2.20
  -4   1  -6   12.23    2.58
  -4  -1  -6    9.27    2.34
   4  -1   6   13.60    4.92
   4   1   6    3.12    3.77
  -4   1  -6    7.43    2.93
  -4  -1  -6    9.84    2.87
  -4  -1  -6   14.11    4.71
  -4   1  -6    6.85    4.13
   4   1   7  443.89   34.84
   4  -1   7  531.83   34.78
  -4  -1  -7  512.33   29.09
  -4   1  -7  529.06   27.06
  -4  -1  -7  539.54   27.09
  -4  -1  -7  501.20   40.44
  -4   1  -7  478.84   34.07
  -4  -1  -7  493.69   33.47
  -4   1  -7  558.13   28.36
  -4  -1  -7  549.97   28.15
  -4  -1  -8    2.62    3.64
  -4   1  -8    7.50    3.67
  -4  -1  -8    6.53    6.92
   4   1   8    4.56    4.84
  -4   1  -8    4.70    2.79
  -4  -1  -8    9.78    2.84
  -4  -1  -9   40.77    6.53
  -4  -1  -9   58.47   12.96
  -4   1  -9   62.91    5.80
  -4  -1  -9   52.17    5.31
   4  -1   9   62.53   10.92
   4   1   9   54.25   10.67
  -4  -1 -10    4.78    2.30
  -4  -1 -10    3.33    3.20
  -4  -1 -11  390.10   22.26
  -4  -1 -12   -0.97    1.98
   4  -2 -14  100.52    6.40
   4   2 -14  109.17    6.51
   4  -2 -13    8.33    3.05
   4   2 -13   12.37    2.90
   4  -2 -13   12.79    2.83
   4   2 -12  352.58   20.90
   4  -2 -12  367.29   20.64
   4  -2 -12  325.49   18.85
   4   2 -12  373.52   19.86
   4  -2 -11    1.56    3.36
   4   2 -11    2.55    3.60
   4  -2 -11    3.07    3.58
   4  -2 -11    0.56    2.61
   4   2 -10 1204.76   61.17
   4  -2 -10 1233.02   61.44
   4  -2 -10 1236.71   62.59
   4   2 -10 1357.42   63.81
   4  -2 -10 1332.23   63.02
   4  -2 -10 1332.08   62.13
   4   2 -10 1169.44   76.61
   4  -2 -10 1307.21   77.70
   4  -2  -9   36.68    9.64
   4   2  -9   32.04    9.39
   4  -2  -9   18.41    3.78
   4  -2  -9   25.67    4.69
   4  -2  -9   23.18    4.81
   4  -2  -9   19.13    4.42
   4  -2  -9   31.39    4.99
   4  -2  -9   29.26    4.39
   4   2  -9   23.21    3.72
   4  -2  -8 1582.02   89.12
   4   2  -8 1502.08   88.76
   4  -2  -8 1570.64   77.59
   4  -2  -8 1655.10   77.67
   4  -2  -8 1596.53   77.72
   4   2  -8 1576.55   78.14
   4  -2  -8 1585.01   78.03
   4  -2  -8 1733.78   77.75
   4  -2  -8 1711.29   77.12
   4   2  -8 1625.91   76.78
   4   2  -8 1570.29   76.11
   4  -2  -7    0.60    2.31
   4   2  -7   -1.14    2.20
   4  -2  -7   -1.12    1.95
   4   2  -7    0.52    2.17
   4  -2  -7   -0.51    1.93
   4   2  -7   -0.43    1.86
   4  -2  -7    0.91    2.07
   4  -2  -7   -2.07    3.71
   4  -2  -7    1.78    2.18
   4   2  -7    1.22    2.06
   4  -2  -7   -0.56    2.15
   4  -2  -6  618.35   37.25
   4  -2  -6  578.99   29.41
   4  -2  -6  580.51   28.84
   4   2  -6  543.80   28.68
   4  -2  -5   -1.44    3.25
   4  -2  -5    0.46    1.92
   4  -2  -5   -1.09    1.36
   4   2  -5    1.46    1.58
   4  -2  -4 1217.93   62.83
   4  -2  -4 1278.35   61.45
   4  -2  -4 1109.02   55.02
   4  -2  -3  173.71   15.31
   4  -2  -3  189.48   14.71
   4  -2  -3  194.06   11.08
   4  -2  -2  662.43   38.25
   4  -2  -1   94.32    9.72
   4  -2  -1   96.70    8.15
   4   2   0   91.07    6.67
   4  -2   0   85.50    8.39
   4  -2   1    6.43    1.89
   4   2   1    3.12    1.59
   4  -2   1    7.36    3.41
  -4  -2  -2 2014.86   99.14
   4  -2   2 2003.85   94.98
   4   2   2 2156.99  101.96
   4  -2   2 2193.74  102.18
   4   2   2 2019.15  101.30
  -4   2  -3   17.06    2.74
  -4  -2  -3   19.53    2.64
  -4  -2  -3   22.85    5.02
   4  -2   3   26.83    3.20
   4   2   3   28.25    6.47
   4  -2   3   24.89    5.93
   4   2   3   22.49    5.68
   4  -2   4  383.03   25.88
   4   2   4  404.96   25.60
   4   2   4  353.60   25.52
  -4   2  -4  365.30   19.37
  -4  -2  -4  365.78   19.29
  -4  -2  -4  332.14   24.17
  -4  -2  -5    6.60    2.18
  -4   2  -5    4.06    2.24
   4   2   5    8.58    4.96
   4  -2   5    4.95    3.50
   4   2   5    5.81    4.03
  -4   2  -5    4.82    4.27
  -4  -2  -6  392.27   27.32
  -4   2  -6  423.64   29.66
  -4   2  -6  407.96   21.47
   4  -2   6  459.08   30.16
   4   2   6  462.83   30.85
  -4   2  -6  396.77   22.53
  -4  -2  -6  415.86   22.42
  -4  -2  -7   -1.54    3.70
  -4   2  -7   -3.85    4.36
  -4   2  -7    1.44    2.24
  -4  -2  -7    0.47    1.94
  -4  -2  -7   -1.56    2.93
  -4   2  -7   -0.65    2.60
  -4  -2  -7   -3.01    6.36
  -4   2  -7   -3.17    7.62
   4   2   7    2.11    4.14
   4  -2   7    3.75    4.50
  -4   2  -8  806.12   39.80
  -4  -2  -8  817.19   39.72
  -4   2  -8  772.48   55.98
  -4  -2  -8  740.21   54.18
  -4   2  -8  788.77   40.84
  -4  -2  -8  779.08   41.85
   4   2   8  836.22   50.51
   4  -2   9   -2.33    4.56
   4   2   9    6.64    4.69
  -4   2  -9    3.32    4.60
  -4  -2  -9   -3.17    6.71
  -4  -2  -9    6.90    4.14
  -4  -2  -9    1.55    2.74
  -4   2  -9    0.54    2.40
  -4   2  -9   -0.69    2.82
  -4  -2 -10  780.76   38.51
  -4  -2 -10  778.18   40.82
  -4  -2 -11    8.73    3.02
  -4   2 -12  262.10   15.19
  -4  -2 -12  269.75   15.18
   4   3 -14   -0.24    1.36
   4  -3 -14   -0.73    1.43
   4   3 -13   53.74    4.96
   4  -3 -13   45.05    5.07
   4   3 -12   -2.27    3.79
   4   3 -12    2.17    3.03
   4  -3 -12    0.66    2.95
   4  -3 -12    1.38    2.15
   4  -3 -11  717.99   35.99
   4   3 -11  647.15   35.75
   4  -3 -11  677.51   35.68
   4   3 -11  687.77   36.57
   4   3 -11  701.90   35.13
   4  -3 -11  640.31   34.24
   4  -3 -10   49.37    6.28
   4   3 -10   41.04    6.48
   4  -3 -10   53.98   13.04
   4  -3 -10   40.03    5.48
   4   3 -10   33.68    5.66
   4  -3 -10   37.95    5.55
   4   3 -10   42.42    4.93
   4  -3 -10   34.58    4.79
   4  -3  -9 1260.00   72.42
   4   3  -9 1190.44   72.31
   4  -3  -9 1168.30   58.94
   4  -3  -9 1200.66   58.84
   4  -3  -9 1182.75   59.61
   4   3  -9 1200.13   59.88
   4  -3  -9 1222.77   59.41
   4  -3  -9 1178.18   58.72
   4   3  -9 1182.01   58.89
   4  -3  -9 1252.46   58.38
   4   3  -9 1153.66   57.37
   4  -3  -8   16.86    6.98
   4   3  -8   14.98    7.24
   4  -3  -8   21.35    4.13
   4   3  -8   19.43    3.71
   4  -3  -8   17.04    3.64
   4  -3  -8   17.00    3.95
   4  -3  -8   17.53    4.06
   4   3  -8    8.79    3.81
   4  -3  -8   14.94    3.64
   4   3  -8   17.97    3.84
   4  -3  -8   15.98    3.54
   4   3  -8   10.31    2.55
   4  -3  -7  683.25   36.23
   4   3  -7  717.10   36.07
   4  -3  -7  746.54   36.14
   4  -3  -7  693.19   44.65
   4   3  -7  786.08   46.21
   4  -3  -7  725.53   35.74
   4   3  -7  707.89   35.68
   4  -3  -7  762.74   35.55
   4  -3  -7  655.88   35.89
   4   3  -7  666.06   36.03
   4  -3  -7  690.55   35.91
   4  -3  -6   56.34    9.07
   4   3  -6   52.03    8.99
   4  -3  -6   49.56    4.84
   4   3  -6   50.81    4.87
   4  -3  -6   57.31    5.31
   4  -3  -6   56.47    5.71
   4  -3  -5   65.58    9.06
   4   3  -5   66.84    9.29
   4  -3  -5   61.02    5.48
   4  -3  -5   63.13    5.05
   4   3  -5   60.76    5.03
   4   3  -4   -1.53    3.46
   4  -3  -4    5.95    3.37
   4  -3  -4    3.66    2.94
   4   3  -4    4.99    3.31
   4  -3  -4    3.89    2.02
   4   3  -3 2313.22  115.70
   4  -3  -3 2386.04  115.73
   4  -3  -2    1.98    2.24
   4   3  -2    2.55    2.70
   4  -3  -2    1.25    3.31
   4  -3  -2   -0.36    1.68
   4  -3  -1 1411.74   71.50
   4  -3  -1 1413.41   68.62
   4   3   0   -0.62    1.63
   4  -3   0    0.83    1.88
   4   3   1 2066.38   96.60
   4  -3   1 1944.08   99.58
   4   3   1 2018.78   99.44
   4  -3   2   23.37    3.16
  -4   3  -2   19.98    2.61
  -4   3  -3  893.13   45.17
   4  -3   3  958.95   45.43
  -4  -3  -3  947.58   44.93
  -4  -3  -3  987.48   51.26
   4   3   3 1039.89   53.19
  -4   3  -4   24.17    3.21
  -4   3  -4   22.40    5.66
   4  -3   4   18.12    2.88
  -4  -3  -4   14.24    5.16
  -4  -3  -4   13.23    2.47
   4   3   4   22.33    6.04
   4   3   5   62.84    9.53
  -4   3  -5   45.70    8.32
  -4   3  -5   44.61    4.82
  -4  -3  -5   56.42    9.18
  -4  -3  -5   50.99    4.92
  -4  -3  -6    5.71    3.81
  -4   3  -6    7.53    4.78
  -4   3  -6    8.50    2.22
  -4  -3  -6    8.90    2.82
  -4   3  -6   15.72    3.51
   4   3   6    5.77    4.09
   4  -3   6   13.18    6.40
  -4   3  -7 1296.92   64.15
  -4   3  -7 1370.52   63.03
  -4   3  -7 1336.97   79.91
  -4  -3  -7 1239.02   77.39
  -4   3  -7 1363.62   73.28
  -4   3  -7 1260.27   65.15
  -4  -3  -7 1323.86   64.94
   4  -3   7 1314.50   72.76
   4   3   7 1275.94   73.12
  -4   3  -8   -0.90    3.60
  -4  -3  -8    0.83    3.46
  -4   3  -8    1.41    3.08
  -4   3  -8    9.98    7.04
  -4  -3  -8   -3.10    5.55
   4   3   8    2.21    4.34
  -4   3  -8    0.54    2.61
  -4  -3  -8    2.54    2.64
  -4   3  -9  501.68   28.58
  -4  -3  -9  486.50   28.05
  -4   3  -9  450.53   39.51
  -4  -3  -9  508.37   40.02
  -4   3  -9  499.42   27.24
   4   3   9  503.67   35.65
  -4  -3  -9  503.90   26.01
  -4   3 -10   -0.83    3.50
  -4  -3 -10    1.55    3.04
  -4  -3 -10    1.39    2.46
  -4   3 -11 1003.11   50.06
  -4  -3 -11  964.22   49.67
  -4  -3 -11 1025.88   47.93
  -4   3 -12    1.45    1.52
   4   4 -14   10.45    1.76
   4  -4 -14   15.21    2.11
   4   4 -13    3.14    2.15
   4  -4 -13   12.61    3.11
   4  -4 -12   14.60    2.97
   4   4 -12   18.09    3.88
   4  -4 -12   20.12    3.84
   4  -4 -11   14.44    3.96
   4   4 -11   12.38    4.19
   4  -4 -11    7.85    2.96
   4   4 -11   13.04    4.85
   4   4 -11   17.48    3.97
   4  -4 -11   12.90    3.93
   4  -4 -10  688.01   35.01
   4  -4 -10  637.39   46.51
   4   4 -10  642.84   47.88
   4  -4 -10  696.98   34.95
   4   4 -10  696.68   35.39
   4  -4 -10  644.81   34.15
   4  -4 -10  596.56   34.33
   4  -4  -9    1.59    2.71
   4  -4  -9    0.69    2.94
   4   4  -9    5.10    3.47
   4  -4  -9    0.78    3.20
   4  -4  -9    1.63    3.27
   4  -4  -9    7.28    3.35
   4   4  -9    4.96    3.16
   4  -4  -9    3.72    2.76
   4  -4  -9    5.35    6.06
   4   4  -9   -2.86    4.58
   4  -4  -8   33.07    9.00
   4   4  -8   29.77    8.56
   4  -4  -8   51.37    6.21
   4   4  -8   27.79    4.71
   4  -4  -8   32.83    4.80
   4  -4  -8   21.21    4.21
   4   4  -8   40.45    5.42
   4  -4  -8   33.26    5.04
   4  -4  -8   39.20    4.84
   4   4  -8   31.43    4.54
   4  -4  -8   39.51    4.70
   4   4  -8   33.84    4.36
   4   4  -8   36.68    3.94
   4  -4  -7   25.11    4.38
   4   4  -7   32.88    4.35
   4  -4  -7   29.13    4.04
   4  -4  -7   36.26    8.91
   4   4  -7   14.60    6.58
   4  -4  -7   36.15    4.16
   4   4  -7   26.54    3.88
   4  -4  -7   34.31    4.21
   4   4  -7   22.29    3.94
   4  -4  -7   21.62    3.98
   4  -4  -7   23.83    3.92
   4   4  -6  182.61   11.91
   4  -4  -6  210.81   11.88
   4   4  -6  221.80   12.07
   4   4  -6  176.64   11.94
   4  -4  -6  177.97   11.82
   4  -4  -6  248.39   19.26
   4   4  -6  198.12   18.00
   4  -4  -6  199.59   12.65
   4  -4  -5    4.25    3.60
   4   4  -5   10.23    4.07
   4  -4  -5    5.69    2.61
   4  -4  -5    5.76    1.80
   4   4  -5   10.79    2.21
   4  -4  -4  329.92   22.01
   4   4  -4  308.27   21.69
   4  -4  -4  313.52   17.32
   4   4  -3   34.37    6.60
   4  -4  -3   34.80    6.61
   4  -4  -2   29.27    5.46
   4   4  -2   41.07    6.91
   4  -4  -2   34.90    6.57
   4  -4  -2   35.08    3.71
   4  -4  -1  127.94    7.97
   4  -4  -1  122.54   11.30
   4  -4  -1  124.76    9.39
   4  -4   0 1886.43   93.99
   4   4   0 1900.99   91.13
   4   4   1    3.62    2.40
   4   4   1   -1.23    2.94
   4  -4   2 1559.03   71.82
  -4   4  -2 1463.32   71.21
  -4   4  -3   30.62    3.59
  -4  -4  -3   35.19    3.48
  -4  -4  -3   23.30    6.04
   4  -4   3   33.24    3.72
   4   4   3   37.96    7.03
  -4   4  -4  178.13   11.35
   4  -4   4  188.98   11.17
  -4  -4  -4  187.44   16.53
  -4  -4  -4  194.22   11.22
   4   4   4  190.06   17.09
  -4   4  -5    1.79    4.29
  -4  -4  -5   -1.72    3.65
  -4   4  -5    0.38    1.53
   4   4   5   -1.79    3.51
  -4   4  -5   -0.53    1.84
  -4  -4  -6  127.36   12.91
  -4   4  -6  141.64    9.32
  -4   4  -6  158.08   16.27
  -4   4  -6  114.66   17.01
  -4  -4  -6  152.05   18.36
  -4   4  -6  133.48   10.07
   4   4   6  163.67   16.45
  -4   4  -6  156.30   11.13
  -4  -4  -6  154.69   10.77
  -4   4  -7    1.64    3.34
  -4  -4  -7    1.50    2.82
   4   4   7    4.20    4.75
   4  -4   7    6.20    4.96
  -4   4  -7    5.47    3.10
  -4   4  -7   -3.12    5.59
  -4  -4  -7   -2.87    6.49
  -4   4  -8    5.30    3.40
  -4  -4  -8    5.65    3.77
   4   4   8    6.53    5.23
  -4   4  -8    4.27    3.33
  -4   4  -8    3.26    6.40
  -4  -4  -8    9.03    6.38
  -4  -4  -8    3.56    2.38
  -4   4  -9    5.26    3.90
  -4  -4  -9    1.61    2.95
  -4   4  -9   -2.08    3.04
  -4   4  -9   -3.18    6.24
  -4  -4  -9   -2.95    5.28
  -4  -4  -9   -0.51    2.37
  -4   4 -10    2.40    2.94
  -4  -4 -10    5.95    3.26
  -4  -4 -10    5.45    2.63
  -4   4 -11    0.64    2.67
  -4  -4 -11    0.61    2.42
  -4  -4 -11   -0.35    2.00
  -4   4 -12    6.51    1.83
   4  -5 -13  571.84   28.76
   4   5 -13  577.68   28.65
   4  -5 -12   45.39    5.27
   4   5 -12   43.11    5.19
   4  -5 -12   41.60    4.61
   4   5 -11  279.35   16.29
   4  -5 -11  259.23   15.61
   4  -5 -11  257.70   16.30
   4  -5 -11  264.79   16.03
   4  -5 -10    8.56    3.67
   4  -5 -10    5.14    3.75
   4  -5 -10    2.78    4.98
   4   5 -10    3.05    5.46
   4  -5 -10    8.26    3.54
   4   5 -10    3.02    3.58
   4  -5 -10    6.42    3.09
   4  -5  -9 1328.23   66.53
   4  -5  -9 1396.60   65.68
   4   5  -9 1373.52   66.82
   4  -5  -9 1314.34   66.18
   4   5  -9 1311.35   66.54
   4  -5  -9 1346.14   66.47
   4  -5  -9 1368.20   77.78
   4   5  -9 1249.67   77.91
   4  -5  -9 1342.04   65.30
   4   5  -9 1378.09   65.84
   4  -5  -9 1330.53   65.16
   4  -5  -8    4.01    3.34
   4  -5  -8    3.18    2.79
   4   5  -8    3.76    2.55
   4   5  -8    6.61    3.22
   4   5  -8    5.91    3.02
   4  -5  -8    6.37    3.45
   4  -5  -8    2.85    2.69
   4  -5  -8   11.54    6.13
   4   5  -8   -2.46    5.21
   4  -5  -8    8.02    3.05
   4   5  -8    2.45    2.15
   4  -5  -8    8.68    3.18
   4  -5  -7   78.83    6.54
   4   5  -7   82.91    6.62
   4  -5  -7   88.65    7.68
   4   5  -7   81.09    6.23
   4  -5  -7   72.71    6.70
   4  -5  -7   70.15    6.79
   4   5  -7   62.50    6.50
   4   5  -7   76.47    6.84
   4  -5  -7   73.85    6.97
   4  -5  -7   59.50   10.61
   4   5  -7   93.77   12.72
   4   5  -7   73.75    7.28
   4  -5  -7   79.60    6.67
   4   5  -6   -1.02    2.20
   4   5  -6    0.75    1.59
   4  -5  -6   -0.42    1.72
   4   5  -6   -0.88    1.54
   4  -5  -6   -1.67    3.00
   4   5  -6    3.49    4.42
   4  -5  -6    1.98    1.86
   4   5  -6    1.55    2.11
   4  -5  -6    1.26    2.15
   4  -5  -5  374.59   20.78
   4   5  -5  353.27   25.62
   4  -5  -5  422.24   26.43
   4  -5  -4   13.39    4.59
   4   5  -4    7.62    3.83
   4   5  -3 1353.96   72.41
   4  -5  -3 1441.90   72.71
   4  -5  -3 1395.88   66.12
   4   5  -2   14.19    4.64
   4  -5  -2   11.20    4.13
   4  -5  -2    7.52    2.10
   4  -5  -2   11.45    3.56
   4  -5  -1  125.29    8.35
   4  -5  -1  146.16   12.46
   4  -5  -1  148.67   10.05
   4  -5   0   14.83    2.47
   4   5   0   17.11    4.16
   4   5   1 1953.29   99.13
   4   5   1 2038.35   97.83
   4   5   2   -1.20    2.71
   4   5   2    4.28    3.02
   4   5   3 1514.77   78.75
  -4   5  -3 1458.31   70.77
  -4  -5  -3 1477.96   77.17
   4  -5   3 1517.00   70.83
  -4   5  -3 1638.79   78.89
  -4  -5  -4    1.58    3.57
  -4   5  -4    0.98    1.92
   4   5   4    3.44    3.64
   4  -5   4    1.68    1.71
  -4   5  -5  168.00   17.41
  -4  -5  -5  184.83   17.55
  -4   5  -5  191.84   12.18
   4   5   5  209.27   18.46
  -4   5  -6   -2.07    4.06
  -4  -5  -6   -1.27    2.49
  -4   5  -6    0.62    2.62
  -4   5  -6   -2.83    5.06
  -4  -5  -6    2.58    4.61
   4   5   6    5.97    5.03
  -4   5  -6   -0.73    2.49
  -4  -5  -6    0.66    2.59
  -4   5  -7  224.54   14.24
   4  -5   7  174.31   19.11
  -4  -5  -7  217.69   14.26
  -4   5  -7  217.27   14.62
   4   5   7  176.91   19.02
  -4   5  -7  196.08   22.98
  -4  -5  -7  215.58   23.15
  -4   5  -8   -3.17    5.67
  -4  -5  -8   -2.91    5.21
  -4   5  -8   -2.88    3.00
  -4   5  -8   -0.86    3.17
  -4  -5  -8   -0.78    2.94
   4  -5   8   -2.09    4.74
   4   5   8   -2.13    4.83
  -4   5  -9  909.82   45.75
  -4   5  -9  857.08   46.36
  -4  -5  -9  875.21   46.05
  -4  -5  -9  947.31   44.49
  -4   5 -10    4.60    3.19
  -4  -5 -10    4.23    3.44
  -4  -5 -10    0.89    2.25
  -4   5 -11   92.64    7.76
  -4  -5 -11   87.20    7.54
  -4  -5 -11   99.12    6.53
  -4   5 -12    7.59    1.96
   4   6 -13   19.16    3.03
   4  -6 -12  568.50   29.43
   4   6 -12  622.94   30.26
   4  -6 -12  575.36   30.19
   4   6 -11   17.58    4.13
   4  -6 -11   11.10    3.47
   4  -6 -11    8.96    3.62
   4  -6 -11   13.86    3.34
   4  -6 -10 1076.40   67.63
   4   6 -10 1041.26   68.96
   4   6 -10 1189.02   57.99
   4  -6 -10 1106.16   57.25
   4  -6 -10 1147.71   56.08
   4  -6 -10 1090.43   57.11
   4  -6 -10 1127.98   56.23
   4   6 -10 1205.10   56.24
   4  -6 -10 1147.23   56.01
   4  -6  -9   32.58    9.08
   4   6  -9   19.38    7.81
   4  -6  -9   26.80    5.26
   4   6  -9   26.17    5.26
   4  -6  -9   36.95    5.82
   4  -6  -9   36.38    5.78
   4  -6  -9   36.80    4.82
   4   6  -9   35.15    5.20
   4  -6  -9   32.58    4.85
   4  -6  -9   24.43    4.67
   4   6  -9   43.58    6.28
   4  -6  -8 1583.33   84.62
   4   6  -8 1504.09   84.74
   4  -6  -8 1577.71   74.07
   4   6  -8 1505.19   74.17
   4  -6  -8 1458.84   73.87
   4   6  -8 1562.75   74.25
   4  -6  -8 1593.19   75.08
   4   6  -8 1389.66   71.51
   4  -6  -8 1571.27   73.23
   4  -6  -8 1591.83   73.62
   4  -6  -8 1598.69   73.07
   4   6  -8 1519.91   73.21
   4  -6  -7    6.90    3.37
   4   6  -7    6.11    2.24
   4  -6  -7    3.57    2.39
   4   6  -7    6.42    2.42
   4  -6  -7    5.23    2.78
   4  -6  -7    6.05    2.79
   4   6  -7    6.32    2.69
   4   6  -7    6.70    3.05
   4   6  -7    4.82    1.78
   4  -6  -7    7.83    5.86
   4   6  -7    8.33    5.00
   4  -6  -7    5.40    2.65
   4   6  -7    5.23    2.45
   4  -6  -6  305.43   16.42
   4  -6  -6  291.72   22.70
   4   6  -6  291.40   23.15
   4  -6  -6  307.17   16.91
   4   6  -6  294.80   16.91
   4   6  -6  300.66   17.00
   4   6  -6  288.81   16.09
   4  -6  -5    8.48    4.26
   4   6  -5   11.97    4.66
   4  -6  -4  466.13   27.38
   4   6  -4  394.66   26.55
   4   6  -4  412.39   20.78
   4   6  -3   32.14    6.58
   4  -6  -3   26.68    6.29
   4   6  -3   33.92    3.20
  -4   6   3   32.60    3.98
   4  -6  -3   34.80    5.27
   4  -6  -3   26.65    3.67
   4   6  -2 2029.03  105.55
   4  -6  -2 2200.71  105.88
   4  -6  -2 2175.46   99.95
   4  -6  -2 2128.32  104.72
   4  -6  -1   92.11    6.53
   4  -6  -1   87.65    7.38
   4  -6  -1   94.80   10.00
   4  -6   0 1435.58   69.78
   4   6   0 1697.33   76.15
   4   6   1  107.39   10.86
  -4   6  -2 3434.83  166.70
   4   6   2 3555.38  167.56
   4   6   2 3442.64  166.46
   4   6   3   32.85    6.70
  -4   6  -3   27.17    3.55
   4  -6   3   28.32    3.57
  -4   6  -3   32.99    6.66
  -4  -6  -4  798.72   46.88
  -4   6  -4  747.29   39.33
   4  -6   4  824.82   38.98
   4   6   4  831.51   47.75
  -4   6  -5    4.08    2.38
  -4   6  -5   11.97    5.54
  -4  -6  -5    1.88    3.98
   4   6   5    5.76    3.77
  -4   6  -6  861.50   44.38
  -4  -6  -6  867.50   43.95
   4   6   6  920.76   53.22
  -4  -6  -6  906.84   53.22
  -4   6  -6  932.53   54.04
  -4   6  -6  873.65   43.88
  -4   6  -6  793.85   55.35
  -4  -6  -6  845.04   54.85
  -4   6  -7    5.76    3.49
  -4   6  -7    8.95    6.77
  -4  -6  -7   10.92    6.20
   4   6   7    8.46    4.81
  -4   6  -7   10.42    4.03
  -4  -6  -7   20.98    4.47
  -4   6  -8  943.09   48.43
   4   6   8  950.23   56.60
  -4  -6  -8  971.22   48.68
  -4   6  -8 1003.09   49.37
   4  -6   8  938.29   56.97
  -4   6  -8  913.33   61.65
  -4  -6  -8  920.14   60.42
  -4  -6  -9   -0.49    2.47
  -4   6  -9   -2.44    3.12
  -4  -6  -9   -1.48    2.84
  -4  -6 -10 1134.60   52.89
  -4   6 -10 1026.17   54.48
  -4  -6 -10 1128.17   54.55
  -4  -6 -11    4.72    2.00
  -4   6 -11    2.71    2.21
  -4  -6 -11    2.01    2.25
   4   7 -13   68.04    5.29
   4  -7 -12   -0.41    1.96
   4   7 -12    0.49    2.55
   4  -7 -12   -0.49    2.35
   4  -7 -11   28.18    4.48
   4   7 -11   37.94    5.15
   4  -7 -11   32.17    4.98
   4  -7 -11   24.10    4.38
   4  -7 -10    8.05    3.83
   4  -7 -10   13.66    4.35
   4  -7 -10   10.91    3.78
   4  -7 -10   10.11    6.42
   4   7 -10   17.05    7.90
   4  -7 -10   17.38    4.00
   4   7 -10   11.52    3.87
   4   7 -10   10.70    4.43
   4  -7  -9  338.58   20.35
   4  -7  -9  320.38   18.41
   4  -7  -9  314.42   19.36
   4   7  -9  312.37   19.50
   4  -7  -9  246.46   25.00
   4   7  -9  290.79   27.51
   4  -7  -9  300.32   18.25
   4  -7  -8   -2.20    4.66
   4   7  -8    4.79    4.29
   4  -7  -8   -0.76    3.10
   4  -7  -8    3.57    3.02
   4   7  -8    0.79    2.60
   4   7  -8    4.50    3.39
   4  -7  -8    1.79    3.59
   4  -7  -8    0.55    2.30
   4  -7  -8    0.64    2.68
   4   7  -8    0.78    2.64
   4   7  -8    0.44    1.62
   4  -7  -8    1.22    2.89
   4  -7  -7   52.04    6.49
   4   7  -7   50.73    4.74
   4   7  -7   53.17    5.10
   4  -7  -7   52.02    5.73
   4   7  -7   56.94    6.09
   4  -7  -7   52.17    9.48
   4   7  -7   51.72    9.83
   4   7  -7   64.20    5.62
   4  -7  -7   65.15    6.28
   4   7  -7   53.15    6.19
   4   7  -6    0.44    1.61
   4   7  -6    0.73    1.31
   4   7  -6    0.42    1.74
   4   7  -6    1.13    2.12
   4  -7  -6    8.32    4.42
   4   7  -6    1.77    4.00
   4   7  -6    3.76    2.06
   4  -7  -6    3.09    2.18
   4  -7  -5  131.46   13.13
   4   7  -5  127.22   13.52
   4  -7  -5  145.03   10.57
   4   7  -5  139.67    8.63
   4   7  -4   10.56    1.92
   4   7  -4   15.63    2.25
  -4   7   3   19.72    3.41
   4  -7  -3   21.66    4.27
   4   7  -3   27.08    3.00
   4   7  -3   22.35    5.91
   4  -7  -3   37.04    6.53
   4  -7  -3   23.59    3.66
  -4   7   3   22.36    3.38
   4  -7  -2   54.80    7.78
   4   7  -2   68.05    5.13
   4   7  -2   57.01    8.31
   4  -7  -2   76.06    8.90
   4  -7  -2   65.68    5.53
  -4   7   2   70.10    6.87
   4   7  -1  184.86   15.72
   4  -7  -1  206.96   15.83
  -4   7   1  190.01   14.26
   4  -7  -1  206.61   12.79
   4  -7  -1  205.64   11.86
  -4   7   0    3.24    3.00
   4   7   0    5.21    2.96
   4  -7   0    6.40    2.04
  -4   7  -1  255.35   19.08
   4   7   1  272.57   19.94
  -4   7  -2  162.92   14.51
   4   7   2  122.27   13.21
  -4   7  -3  920.05   50.41
   4   7   3  829.68   49.33
   4   7   3  826.10   49.60
   4   7   4    7.41    4.24
  -4   7  -4   14.18    3.08
  -4  -7  -4   22.92    6.65
   4  -7   4   13.97    2.65
  -4   7  -4   11.36    5.90
   4   7   5  323.91   25.31
  -4  -7  -5  320.72   25.14
  -4   7  -5  303.10   17.97
  -4   7  -6   11.19    3.33
  -4  -7  -6   15.10    6.48
  -4   7  -6    5.41    5.75
  -4  -7  -6   17.33    6.88
  -4   7  -6   13.56    3.47
  -4  -7  -6   11.58    3.46
   4   7   6   10.44    6.05
  -4   7  -7   25.97    8.67
  -4  -7  -7   18.56    7.39
  -4   7  -7   20.55    4.30
  -4   7  -7   16.39    4.02
  -4  -7  -7   19.04    4.18
   4   7   7    6.33    4.84
  -4   7  -8   17.81    4.41
  -4   7  -8    8.74    6.21
  -4  -7  -8   21.49    7.78
   4  -7   8   17.93    6.74
  -4   7  -8   13.66    3.86
  -4  -7  -8   13.10    3.83
  -4   7  -9    8.49    3.57
  -4  -7  -9    6.32    3.10
  -4  -7  -9   13.13    3.17
  -4   7 -10    0.66    2.81
  -4  -7 -10    4.24    3.19
  -4  -7 -10    6.17    2.44
  -4   7 -11   51.94    5.09
  -4  -7 -11   41.46    4.54
  -4  -7 -11   45.52    3.99
  -4   7 -11   52.10    4.64
   4   8 -12  986.27   45.89
   4  -8 -12  895.22   45.03
   4  -8 -12  956.12   45.69
   4  -8 -12  936.03   45.41
   4  -8 -11    3.67    2.84
   4  -8 -11   11.87    3.13
   4   8 -11    5.20    3.36
   4  -8 -10  352.56   21.93
   4   8 -10  358.12   20.51
   4  -8 -10  331.58   20.10
   4  -8 -10  385.30   20.70
   4  -8  -9   -0.66    2.77
   4   8  -9    6.89    3.45
   4  -8  -9    1.97    3.29
   4  -8  -9   -4.66    4.93
   4   8  -9    5.18    5.49
   4  -8  -9    0.98    3.90
   4  -8  -8 3324.26  166.05
   4   8  -8 3184.91  166.66
   4   8  -8 3326.22  156.63
   4  -8  -8 3573.02  156.40
   4   8  -8 3262.90  156.18
   4  -8  -8 3426.55  157.82
   4   8  -8 3136.72  154.52
   4  -8  -8 3497.84  155.64
   4   8  -8 3195.29  156.71
   4  -8  -8 3491.13  155.78
   4   8  -7    0.52    1.91
   4  -8  -7    1.23    2.41
   4   8  -7    1.94    2.58
   4  -8  -7   -0.62    2.59
   4   8  -7   -1.02    2.17
   4   8  -7    4.89    2.44
   4   8  -7    2.21    1.80
   4  -8  -7   -1.92    3.43
   4   8  -7    2.04    3.66
   4   8  -6   85.46    7.25
   4   8  -6   75.09    6.62
   4  -8  -6   87.05    6.81
   4  -8  -6   91.89   11.70
   4   8  -6   56.38    9.75
   4   8  -6   94.23    6.63
   4   8  -6   77.70    6.56
   4   8  -6   78.25    6.88
   4   8  -5    3.49    1.80
   4   8  -5    7.75    2.31
   4   8  -5    6.80    2.06
   4   8  -5    4.88    1.67
   4  -8  -5    2.90    3.29
   4   8  -4 2108.13   97.03
  -4   8   4 2068.43  100.82
   4  -8  -4 2077.89   99.19
   4   8  -3   49.60    4.24
   4  -8  -3   44.22    4.88
  -4   8   3   42.19    5.29
   4  -8  -3   37.90    5.86
   4  -8  -2 1527.72   77.84
   4   8  -2 1536.06   72.30
   4   8  -2 1412.62   77.69
   4  -8  -2 1558.10   77.87
   4  -8  -2 1586.82   72.94
  -4   8   2 1540.44   74.64
   4   8  -1   27.45    5.79
   4  -8  -1   46.70    6.67
  -4   8   1   36.53    5.38
   4  -8  -1   34.25    4.14
   4  -8  -1   36.02    4.06
  -4   8   0 2398.38  115.00
   4   8   0 2439.73  117.64
   4  -8   0 2337.88  109.60
   4   8   1   56.59    8.69
  -4   8  -1   51.72    7.82
   4   8   2  519.56   32.62
  -4   8  -2  440.74   30.41
  -4   8  -3   15.94    5.53
   4   8   3   15.27    5.76
  -4   8  -4  927.05   46.49
   4   8   4  868.67   55.22
   4  -8   4  931.69   45.69
  -4   8  -4 1092.23   57.21
  -4  -8  -4  959.06   54.84
  -4   8  -5   -2.40    3.33
  -4  -8  -5   -2.20    4.32
  -4   8  -5   -0.64    2.90
  -4   8  -5   -0.63    2.25
  -4  -8  -5   -2.83    2.35
   4   8   5   -4.08    4.89
  -4  -8  -5   -4.13    4.67
  -4   8  -6  153.69   10.86
  -4  -8  -6  160.62   17.52
  -4   8  -6   99.46   15.63
  -4  -8  -6  110.94   15.84
   4   8   6  155.93   16.77
  -4   8  -6  156.19   10.91
  -4  -8  -6  144.59   10.46
  -4   8  -7    2.75    4.93
  -4  -8  -7    2.55    4.56
  -4   8  -7    0.75    2.70
  -4  -8  -7    1.37    2.57
  -4   8  -7    3.56    3.42
  -4   8  -8 2054.48  108.75
  -4  -8  -8 1962.59  106.78
  -4   8  -8 1870.68   94.81
  -4  -8  -8 2073.72   94.83
   4  -8   8 2038.39  105.72
  -4  -8  -9    0.47    2.31
  -4   8  -9   -1.44    2.76
  -4  -8  -9   -0.65    2.91
  -4   8 -10  585.11   31.99
  -4  -8 -10  582.55   31.63
  -4  -8 -10  632.55   30.92
  -4   8 -10  640.46   31.80
  -4   8 -10  679.33   32.26
  -4  -8 -11   -0.26    1.42
  -4   8 -11   -1.86    1.88
   4  -9 -12    1.41    1.79
   4  -9 -12    1.24    2.14
   4  -9 -12   -0.35    1.78
   4  -9 -11   36.92    5.41
   4  -9 -11   46.55    5.13
   4   9 -11   43.55    5.21
   4  -9 -11   37.19    4.62
   4  -9 -10    0.94    3.59
   4  -9 -10   -1.89    3.02
   4   9 -10    0.63    3.18
   4  -9 -10    0.60    2.49
   4  -9  -9  449.68   27.09
   4   9  -9  440.40   34.39
   4  -9  -9  450.35   24.83
   4   9  -9  456.20   24.98
   4  -9  -9  472.18   25.30
   4  -9  -8   15.55    4.60
   4   9  -8   20.52    3.62
   4   9  -8   21.79    4.63
   4  -9  -8   20.57    3.96
   4  -9  -8   12.59    5.36
   4   9  -8    8.97    5.44
   4   9  -8   16.99    4.30
   4  -9  -8   12.78    4.36
   4   9  -7  106.44    7.96
   4   9  -7   91.77    8.21
   4  -9  -7   96.74    8.14
   4  -9  -7   98.76   12.48
   4   9  -7  103.14   13.25
   4  -9  -7   97.00    8.74
   4   9  -7   97.31    8.22
   4   9  -7   94.36    8.45
   4   9  -6    4.54    2.26
   4   9  -6    6.38    2.33
   4   9  -6   -1.09    2.27
   4  -9  -6    1.68    3.80
   4   9  -6    4.27    2.31
   4   9  -6    3.79    2.63
   4   9  -5   12.32    3.03
   4   9  -5   24.37    3.59
   4   9  -5   15.05    3.51
   4   9  -5   16.96    3.20
   4   9  -5   21.84    3.17
   4   9  -5   20.04    2.83
  -4   9   5   22.33    4.73
   4   9  -4    0.58    2.08
   4   9  -4    1.41    1.64
   4  -9  -4    2.85    2.35
  -4   9   4    2.02    2.42
   4   9  -4   -0.38    1.57
   4   9  -4    0.40    1.38
   4  -9  -3   37.90    5.77
   4   9  -3   39.48    4.16
   4  -9  -3   45.12    5.04
   4  -9  -2   17.93    3.19
   4  -9  -2   19.29    4.89
   4   9  -2   18.60    2.96
  -4   9   2   12.99    3.09
   4   9  -2   18.66    4.52
   4  -9  -2   17.45    4.34
   4   9  -1  205.11   17.02
   4  -9  -1  243.78   17.52
  -4   9   1  237.50   16.79
   4   9  -1  240.40   14.03
   4  -9  -1  267.54   14.33
  -4   9   0    2.35    2.66
   4  -9   0    0.42    1.67
   4   9   0    1.68    3.56
   4   9   1 1199.93   66.36
  -4   9  -1 1210.86   64.01
  -4   9  -2    3.25    3.91
   4   9   2    1.91    2.65
   4   9   3   35.81    8.41
   4   9   3   34.66    4.66
  -4   9  -3   35.49    7.64
   4   9   4    6.90    4.53
  -4   9  -4   12.77    3.37
  -4  -9  -4    7.93    4.23
  -4   9  -4   16.92    6.58
   4  -9   4   11.71    2.52
  -4   9  -5   51.82    5.83
  -4   9  -5   71.41    6.68
  -4   9  -5   43.79    9.45
  -4  -9  -5   65.88   10.85
  -4  -9  -5   75.63   12.30
  -4  -9  -5   70.39    6.22
   4   9   5   53.74   11.06
  -4   9  -6    3.55    3.06
  -4  -9  -6   -2.30    4.51
  -4   9  -6    2.50    3.46
  -4  -9  -6   -2.31    4.14
  -4   9  -6   -1.36    2.31
  -4  -9  -6    2.46    2.55
  -4   9  -7   28.44    8.56
  -4   9  -7   16.45    3.83
  -4  -9  -7   13.01    3.65
  -4   9  -7   21.67    4.47
   4   9   8   -2.52    3.49
  -4   9  -8    2.85    2.85
  -4  -9  -8   -0.65    2.64
  -4   9  -9  633.72   34.85
  -4  -9  -9  679.35   34.74
  -4   9  -9  728.11   34.95
  -4  -9 -10    1.79    1.92
  -4   9 -10    7.60    2.77
  -4   9 -10    6.20    2.55
  -4   9 -10   -0.50    1.20
  -4  -9 -11   11.89    1.87
  -4   9 -11   12.73    2.41
   4 -10 -12   17.14    2.88
   4 -10 -12    0.93    1.04
   4 -10 -11   18.85    4.00
   4  10 -11   14.51    3.59
   4 -10 -11    9.78    2.77
   4 -10 -10  212.18   14.79
   4 -10 -10  209.32   15.21
   4 -10 -10  225.97   13.82
   4 -10 -10  204.30   13.14
   4  10 -10  216.67   13.74
   4 -10  -9    0.83    3.45
   4  10  -9    1.92    3.08
   4 -10  -9    4.86    2.83
   4 -10  -9    1.32    3.13
   4 -10  -9    1.01    3.95
   4  10  -8  173.37   11.76
   4 -10  -8  145.11   13.08
   4 -10  -8  200.21   13.35
   4 -10  -8  187.86   11.99
   4  10  -8  155.72   13.02
   4 -10  -7   22.29    4.31
   4 -10  -7   22.92    4.57
   4  10  -7   28.33    4.14
   4  10  -7   31.53    4.84
   4  10  -7   27.66    4.26
   4  10  -6  136.11    9.14
   4  10  -6  129.71   10.69
   4  10  -6  114.40    9.09
   4  10  -6  139.40   10.26
   4  10  -5    3.39    2.37
   4  10  -5    1.63    1.85
   4  10  -5    3.20    2.07
   4  10  -5    3.62    2.12
   4  10  -4  319.32   17.45
   4  10  -4  310.49   17.68
   4  10  -4  322.77   18.57
   4  10  -3  157.54   10.76
   4  10  -3  174.47   11.66
   4 -10  -3  147.94   12.96
   4 -10  -3  168.69   11.95
   4 -10  -3  188.45   11.88
   4  10  -3  194.02   11.04
   4  10  -3  173.84   10.87
   4 -10  -2  436.83   28.44
   4  10  -2  449.61   23.65
   4 -10  -2  448.80   23.96
   4 -10  -1   77.12    6.11
   4  10  -1   62.25    5.96
   4  10  -1   72.28    5.97
  -4  10   1   63.55    7.48
   4 -10   0   68.16    5.70
   4  10   0   64.17    6.11
   4  10   0   69.74   10.88
  -4  10   0   73.61    8.75
   4  10   0   62.60    8.01
   4  10   1    5.83    2.46
  -4  10  -1   10.22    4.23
   4  10   2  235.57   21.33
   4  10   2  214.24   13.99
  -4  10  -2  273.49   20.81
   4  10   3   17.29    3.81
   4  10   3   18.51    6.20
  -4  10  -3   23.66    7.10
   4  10   4   27.37    8.03
   4 -10   4   26.44    3.80
  -4  10  -4   21.49    7.07
  -4 -10  -4   37.73    8.28
  -4  10  -4   17.57    3.23
   4  10   5    2.60    4.17
  -4  10  -5   -1.17    1.93
  -4  10  -5    3.54    2.89
  -4 -10  -5   -2.26    4.04
  -4  10  -5    2.16    3.45
  -4 -10  -6  399.39   30.73
  -4  10  -6  362.74   21.00
   4  10   6  345.37   30.33
  -4  10  -6  386.53   21.92
  -4  10  -7   31.39    5.14
   4  10   7   15.82    7.41
  -4  10  -7   29.18    4.49
  -4  10  -8  314.61   19.64
  -4  10  -8  390.03   20.33
  -4  10  -9    1.66    1.60
  -4  10  -9    6.21    2.90
  -4  10  -9    4.36    2.76
  -4  10 -10   62.20    5.38
  -4 -10 -10   49.77    4.38
  -4  10 -10   46.34    4.98
  -4  10 -11    1.55    1.61
  -4 -10 -11    2.52    1.09
   4 -11 -12    7.83    2.18
   4 -11 -12   -0.26    0.47
   4 -11 -11  322.16   19.93
   4 -11 -11  363.57   18.98
   4 -11 -10    0.58    2.87
   4 -11 -10    0.50    2.51
   4 -11 -10   -1.55    3.46
   4 -11 -10   -0.91    3.24
   4 -11  -9 1135.60   56.76
   4 -11  -9 1127.10   55.51
   4 -11  -9 1142.45   54.38
   4  11  -9  994.39   54.83
   4 -11  -9 1070.06   53.50
   4  11  -9 1144.42   54.45
   4 -11  -8   16.02    5.27
   4 -11  -8    8.59    3.31
   4 -11  -8    9.77    4.08
   4  11  -8    6.03    3.21
   4  11  -8    2.65    3.06
   4 -11  -7  675.60   35.76
   4 -11  -7  737.13   37.15
   4  11  -7  692.73   36.03
   4  11  -7  695.18   36.87
   4  11  -6    9.31    3.37
   4  11  -6    9.39    3.04
   4  11  -6   11.00    3.77
   4  11  -5   73.14    6.42
   4  11  -5   94.51    7.46
   4  11  -5   82.90    7.81
   4  11  -4   36.56    4.16
   4  11  -4   25.74    4.01
   4  11  -4   27.30    4.54
   4  11  -3  597.17   29.42
   4  11  -3  576.35   29.49
   4  11  -3  556.01   29.36
   4  11  -3  569.24   30.30
   4 -11  -3  549.42   29.99
   4  11  -2    8.89    3.08
   4  11  -2    8.09    2.56
   4 -11  -2   10.41    3.20
   4 -11  -2    9.93    4.27
   4 -11  -2   12.17    3.11
   4  11  -1 1224.95   60.70
   4 -11  -1 1253.49   60.09
   4  11  -1 1260.53   60.40
   4 -11   0   20.91    3.34
   4  11   0   24.29    4.05
   4  11   1 1282.17   72.45
   4  11   1 1283.69   62.50
   4  11   2    2.34    4.18
   4  11   2    1.29    2.26
  -4  11  -3  201.79   12.12
   4  11   3  214.61   21.91
   4  11   3  218.65   14.25
  -4  11  -4    5.96    2.12
   4 -11   4    8.46    2.55
  -4 -11  -4    2.21    4.68
   4  11   4    5.36    5.26
  -4  11  -5   55.43    5.66
  -4  11  -5   58.62    6.43
  -4 -11  -5   46.86   10.38
   4  11   5   38.58    9.66
   4  11   6    2.75    4.42
  -4  11  -6   10.36    3.29
  -4  11  -6    6.10    3.62
   4  11   7  538.50   41.85
  -4  11  -7  590.11   32.17
  -4  11  -7  629.26   31.70
  -4  11  -8   -0.71    2.94
  -4  11  -8    1.76    2.65
  -4  11  -9  630.19   32.58
  -4  11  -9  632.87   32.16
  -4  11 -10    1.73    2.05
  -4 -11 -10   -0.83    1.49
  -4  11 -10   -1.64    2.20
  -4  11 -11  146.34    8.87
  -4  11 -11  198.60    9.65
   4 -12 -12    0.20    0.40
   4 -12 -12  225.88    6.52
   4 -12 -11    7.04    2.80
   4 -12 -11   14.58    2.91
   4 -12 -10   11.21    4.32
   4 -12 -10    7.56    3.16
   4 -12 -10    5.98    2.34
   4 -12 -10    7.33    3.63
   4 -12  -9    4.85    3.73
   4  12  -9    5.04    3.02
   4 -12  -9    6.31    4.29
   4 -12  -9    3.75    3.13
   4 -12  -9    8.34    2.75
   4 -12  -8  725.39   40.99
   4 -12  -8  768.41   38.46
   4 -12  -8  798.33   40.27
   4  12  -8  755.06   39.08
   4  12  -8  755.08   39.81
   4 -12  -7    5.59    2.58
   4 -12  -7    1.58    3.23
   4  12  -7    1.69    2.87
   4  12  -7   -1.39    2.94
   4  12  -6  294.88   18.76
   4  12  -6  260.26   16.44
   4  12  -6  268.41   17.46
   4  12  -5    2.77    2.08
   4  12  -5    4.00    3.14
   4  12  -5    3.19    2.60
   4  12  -4   49.39    5.13
   4  12  -4   44.32    5.20
   4  12  -4   37.15    5.55
   4  12  -3   19.59    3.47
   4 -12  -3   20.18    4.09
   4 -12  -2  256.96   15.50
   4  12  -2  272.58   15.64
   4  12  -2  263.74   16.09
   4  12  -1   19.46    3.56
   4 -12  -1   17.75    3.32
   4  12  -1   13.56    3.52
   4 -12   0 2100.30   97.46
   4  12   0 2051.61   98.67
   4  12   1    2.05    2.33
   4  12   1    2.41    4.31
   4  12   1   11.55    3.00
   4  12   2   20.72    3.98
   4  12   2   12.71    3.55
   4  12   2   20.47    7.70
   4  12   3    2.73    4.89
  -4  12  -3    6.61    2.22
   4  12   3    6.42    2.96
  -4  12  -4  269.84   15.13
   4  12   4  239.92   16.32
   4  12   4  248.33   25.40
  -4  12  -5   17.87    3.43
  -4  12  -5   19.39    4.80
   4  12   5   20.20    8.37
  -4  12  -6    0.61    2.44
  -4  12  -6    1.55    2.98
   4  12   6    2.79    2.56
   4  12   6    2.82    5.05
  -4  12  -7   11.67    3.76
   4  12   7    6.73    2.89
  -4  12  -7   12.71    3.59
  -4  12  -8  718.06   37.84
  -4  12  -8  751.83   37.32
  -4  12  -9    1.08    2.16
  -4  12  -9    0.48    2.14
  -4  12 -10   23.26    3.07
  -4 -12 -10   16.89    2.24
  -4  12 -10   21.27    3.04
  -4  12 -11    2.84    1.18
   4 -13 -12    2.87    1.40
   4 -13 -11  459.32   22.52
   4 -13 -11  412.75   23.59
   4 -13 -10    6.35    2.72
   4 -13 -10    5.43    3.45
   4 -13 -10    6.43    3.42
   4 -13  -9  337.64   21.23
   4 -13  -9  337.73   20.33
   4 -13  -9  349.79   19.36
   4  13  -9  314.24   20.27
   4 -13  -9  341.76   18.42
   4 -13  -8   22.65    3.69
   4 -13  -8   18.92    4.63
   4  13  -8   16.23    4.39
   4  13  -8   17.56    4.07
   4 -13  -7  838.42   44.83
   4 -13  -7  850.75   42.39
   4 -13  -7  818.68   43.56
   4  13  -7  840.95   43.19
   4  13  -7  884.92   44.49
   4 -13  -6    8.19    4.32
   4  13  -6    7.10    3.02
   4  13  -6    2.65    3.82
   4  13  -6   13.54    4.26
   4  13  -5  184.86   12.86
   4  13  -5  201.96   14.21
   4  13  -5  192.98   12.45
   4  13  -4   20.95    4.04
   4  13  -4   27.64    5.05
   4  13  -4   21.98    3.78
   4 -13  -4   17.80    4.40
   4  13  -3  626.21   33.77
   4 -13  -3  692.01   34.71
   4  13  -2  134.31   10.81
   4  13  -2  152.21   10.66
   4 -13  -2  159.34   10.79
   4 -13  -2  131.71   13.55
   4  13  -1  491.77   27.87
   4 -13  -1  516.11   26.96
   4  13  -1  514.43   27.53
   4  13   0   22.51    4.39
   4 -13   0   17.25    3.36
   4  13   1  307.56   18.68
   4  13   1  294.78   18.27
   4  13   2  113.71   16.01
   4  13   2  101.56    8.56
   4  13   2   93.32    8.61
   4  13   3  951.59   63.10
  -4  13  -3 1029.43   49.19
   4  13   3 1006.39   51.17
   4  13   3 1025.38   51.89
  -4  13  -4    5.83    2.39
   4  13   4    6.01    4.82
   4  13   4   12.91    3.91
   4  13   4    8.20    3.43
   4  13   5  137.03   18.66
  -4  13  -5  165.55   10.77
  -4  13  -5  140.54   11.37
   4  13   5  152.18   11.38
  -4  13  -6   31.00    4.61
  -4  13  -6   31.24    5.35
   4  13   6   22.69    4.28
   4  13   6   31.33    8.92
  -4 -13  -6   33.60    8.89
  -4  13  -7 1000.26   50.42
   4  13   7 1065.16   50.50
  -4  13  -7 1009.29   51.35
  -4  13  -8   17.72    3.73
  -4  13  -8   23.27    3.80
  -4  13  -9   46.21    5.05
  -4  13  -9   61.05    5.20
  -4  13 -10    5.36    1.89
   4 -14 -12  307.21   15.00
   4 -14 -11    1.51    1.76
   4 -14 -10  764.11   37.38
   4 -14 -10  753.39   39.35
   4 -14  -9    2.81    3.38
   4  14  -9    7.23    3.41
   4 -14  -9    3.75    2.65
   4 -14  -9    2.61    3.27
   4 -14  -8  278.57   15.77
   4 -14  -8  272.91   17.34
   4  14  -8  276.65   17.64
   4 -14  -7    9.36    4.18
   4 -14  -7    2.79    2.28
   4 -14  -7    6.98    3.23
   4  14  -7    3.71    3.20
   4  14  -7    3.59    3.30
   4 -14  -6  713.52   40.30
   4  14  -6  790.59   41.84
   4  14  -6  782.60   39.60
   4  14  -6  757.39   40.61
   4 -14  -5    8.57    4.01
   4  14  -5    4.33    2.97
   4  14  -5   10.80    3.89
   4  14  -4   73.58    8.01
   4 -14  -4   85.68    8.21
   4  14  -4   86.61    7.56
   4 -14  -3    1.44    3.00
   4  14  -3    0.67    2.33
   4  14  -2 1880.98   96.50
   4 -14  -2 2038.59   95.77
   4  14  -2 2081.05   96.15
   4  14  -2 2061.59   96.23
   4  14  -1   76.52    7.58
   4 -14  -1   67.71    6.56
   4  14  -1   69.63    6.99
   4  14   0 1287.14   63.64
   4  14   1    3.85    3.09
   4  14   1    4.39    2.69
   4  14   2 1872.71  104.60
   4  14   2 1879.58   90.19
   4  14   2 1880.07   90.23
  -4  14  -3    9.00    2.50
   4  14   3    9.25    5.53
   4  14   3    8.50    3.36
   4  14   3   15.21    4.01
  -4  14  -4   70.75    6.34
   4  14   4   83.95   14.67
   4  14   4   78.39    7.54
   4  14   4   69.92    7.75
  -4  14  -5    0.58    2.50
  -4 -14  -5   -2.44    5.17
  -4  14  -5   -0.81    3.24
   4  14   5   -2.23    3.09
   4  14   5   -3.02    4.83
   4  14   6  483.77   25.97
  -4  14  -6  456.64   26.50
  -4  14  -6  480.70   25.53
   4  14   7    1.59    2.08
  -4  14  -7    3.89    2.67
  -4  14  -7    7.52    3.33
  -4  14  -8  544.86   29.25
  -4  14  -8  578.83   28.87
  -4  14  -9   -0.85    1.97
  -4  14  -9    0.76    2.05
  -4 -14  -9    0.49    1.38
  -4  14 -10  420.96   21.12
  -4  14 -10  426.66   20.95
   4 -15 -11   14.33    2.13
   4 -15 -10    1.09    2.00
   4 -15 -10    1.30    3.00
   4 -15  -9   -1.42    2.43
   4  15  -9    4.46    3.03
   4 -15  -9    0.64    3.04
   4 -15  -8    4.38    3.43
   4 -15  -8   -1.42    3.27
   4  15  -8    0.79    2.68
   4 -15  -7    9.02    4.63
   4 -15  -7    2.02    2.18
   4 -15  -7    9.72    3.97
   4  15  -7    5.40    3.75
   4 -15  -6    3.57    3.43
   4  15  -6    2.82    3.19
   4  15  -6    4.39    3.73
   4 -15  -5  644.97   35.10
   4  15  -5  651.37   35.65
   4  15  -4    2.07    2.58
   4 -15  -4   -0.80    3.46
   4  15  -4    4.55    3.49
   4  15  -3  404.85   22.69
   4 -15  -3  385.04   22.63
   4  15  -2    2.19    2.80
   4 -15  -2   -1.33    2.50
   4  15  -2    1.69    3.39
   4 -15  -1    5.94    2.57
   4  15  -1    5.80    3.19
   4  15   0    9.79    3.68
   4  15   0    4.90    3.28
   4  15   1   52.03    6.21
   4  15   1   45.18    6.00
   4  15   2   61.69    6.57
   4  15   2   34.49    9.99
   4  15   2   47.57    6.07
   4  15   3  115.98   10.74
  -4  15  -3  133.53    8.92
   4  15   3  127.97   18.33
   4  15   3  139.06   10.77
   4  15   4    2.54    2.95
  -4 -15  -4    9.80    6.20
  -4  15  -4    0.53    2.16
   4  15   4    3.16    5.06
   4  15   4   -0.78    2.71
  -4  15  -5  288.71   16.41
   4  15   5  255.42   27.03
  -4  15  -5  287.84   17.92
   4  15   5  291.62   17.36
   4  15   6   11.10    3.23
  -4  15  -6    8.95    3.41
  -4  15  -6   12.22    3.21
  -4  15  -7  107.17    8.22
   4  15   7  120.35    8.29
  -4  15  -7  119.88    9.20
  -4  15  -8    2.56    2.19
  -4  15  -8    4.63    2.40
  -4  15  -9    2.56    1.71
  -4  15  -9    7.09    1.97
  -4  15 -10    2.86    1.16
   4 -16 -11   25.12    2.30
   4 -16 -10  443.44   22.30
   4 -16 -10  456.88   24.14
   4 -16  -9   -0.41    2.23
   4  16  -9    1.32    1.40
   4 -16  -9   -0.57    3.02
   4  16  -8  131.94   11.35
   4 -16  -8  128.62   10.02
   4  16  -8  140.48   10.62
   4 -16  -8  136.10   10.85
   4 -16  -7   14.08    4.10
   4  16  -7   13.22    4.33
   4  16  -7   12.32    3.77
   4 -16  -7   11.08    4.08
   4 -16  -6  540.12   30.15
   4 -16  -6  566.70   28.93
   4 -16  -6  555.76   31.15
   4  16  -6  552.47   32.27
   4  16  -6  585.90   31.78
   4 -16  -5    5.05    3.44
   4  16  -5    5.73    3.75
   4 -16  -4  144.33   11.53
   4  16  -4  153.79   11.09
   4  16  -3  133.29   11.18
   4 -16  -3  128.18   10.19
   4  16  -3  125.90   10.10
   4  16  -2 1100.00   55.75
   4 -16  -2 1091.31   54.15
   4  16  -2 1099.74   54.97
   4  16  -1   72.20    7.81
   4 -16  -1   65.15    6.36
   4  16  -1   65.85    7.08
   4  16   0  451.49   24.82
   4  16   0  401.76   24.61
   4  16   1   27.61    4.81
   4  16   1   28.94    4.98
   4  16   2 1949.76   93.20
   4  16   2 1926.25   92.97
   4  16   3   34.78    5.30
   4  16   3   32.55   10.21
   4  16   3   36.30    6.07
   4  16   4  112.93    9.82
  -4  16  -4  112.00    8.09
   4  16   4   94.50   15.90
  -4 -16  -4  108.46   15.12
   4  16   4  103.76    9.04
  -4  16  -5    5.44    3.65
   4  16   5    8.86    3.11
  -4  16  -5    9.44    2.96
  -4  16  -6  751.25   37.81
   4  16   6  719.89   36.69
  -4  16  -6  717.20   36.30
  -4  16  -7   26.86    4.29
  -4  16  -7   39.81    4.26
  -4  16  -8  139.92    9.44
  -4  16  -8  154.90    9.20
   4 -17 -10   12.54    1.99
   4  17  -9   -1.10    1.32
   4 -17  -9   51.47    3.75
   4  17  -8    0.85    3.06
   4 -17  -8    3.46    2.88
   4 -17  -8    3.67    2.99
   4  17  -8   -0.69    2.91
   4 -17  -7  286.98   16.76
   4 -17  -7  272.59   17.34
   4  17  -7  256.68   17.38
   4 -17  -6   12.36    4.01
   4 -17  -6    7.33    3.65
   4  17  -6    8.31    4.45
   4  17  -6    4.19    3.47
   4 -17  -5   21.88    4.63
   4  17  -5   12.40    4.43
   4  17  -5    6.87    4.53
   4  17  -4    9.36    3.29
   4 -17  -4    9.34    3.91
   4  17  -3   52.03    6.56
   4 -17  -3   63.72    6.91
   4  17  -2    2.39    2.99
   4 -17  -2    2.61    3.09
   4  17  -2    0.91    3.66
   4  17  -1  412.52   24.14
  -4  17   1  362.58   34.05
   4  17  -1  402.39   23.57
   4  17   0    1.74    3.42
   4  17   1  114.05    9.56
   4  17   1   98.72    9.28
   4  17   2   43.79    5.91
   4  17   2   46.51    6.70
   4  17   3  140.41   11.86
  -4 -17  -3  162.52   18.56
   4  17   3  151.01   11.38
   4  17   4    1.59    2.84
  -4  17  -4   -0.78    2.99
   4  17   4   -0.72    2.59
   4  17   5   40.90    5.16
  -4  17  -5   35.88    5.43
  -4  17  -6   -0.64    2.72
  -4  17  -7  225.40   14.08
  -4  17  -7  256.79   14.58
  -4  17  -7  249.27   14.44
  -4  17  -8    0.39    1.83
  -4  17  -9   47.22    3.69
   4 -18  -9   10.14    2.78
   4 -18  -9    4.88    1.72
   4  18  -8  306.07   17.53
   4 -18  -8  268.79   15.63
   4 -18  -8  318.19   16.97
   4 -18  -8  293.83   17.66
   4  18  -8  329.55   18.60
   4  18  -7   -0.79    3.20
   4 -18  -7   -2.14    3.23
   4 -18  -7   -0.57    2.72
   4  18  -6   37.95    6.00
   4  18  -6   27.27    5.37
   4 -18  -6   24.80    4.99
   4 -18  -6   40.93    5.17
   4 -18  -5    3.04    3.60
   4  18  -5   -1.86    3.72
   4  18  -5    1.10    3.75
   4 -18  -4  440.53   24.88
   4  18  -3   35.56    5.73
   4 -18  -3   29.74    4.85
   4  18  -3   22.05    4.38
  -4  18   3   14.97    8.56
   4  18  -2   14.75    4.35
   4 -18  -2   13.00    3.38
   4  18  -2   14.39    3.94
  -4  18   2   17.26    7.84
   4  18  -1   44.36    6.27
   4  18  -1   48.84    6.84
   4  18   0  384.92   23.10
   4  18   1    2.48    3.74
   4  18   2    5.86    3.92
  -4  18  -2    7.34    2.67
   4  18   3   41.54    6.09
  -4  18  -3   32.99    4.61
  -4  18  -4  293.65   18.48
   4  18   4  329.86   18.86
  -4  18  -4  296.90   17.70
  -4  18  -5   14.54    3.64
  -4  18  -5   15.51    3.80
  -4  18  -6   10.35    3.11
  -4  18  -6    3.98    2.51
  -4  18  -7    5.07    2.06
  -4  18  -7    3.13    2.00
  -4  18  -7    2.54    1.92
  -4  18  -8   34.60    3.43
   4 -19  -9  331.66   16.18
   4 -19  -8    5.86    1.82
   4  19  -8    6.83    2.78
   4 -19  -8    5.43    2.32
   4  19  -8    5.53    2.36
   4 -19  -8    7.65    2.81
   4 -19  -7  654.24   33.23
   4  19  -7  714.68   35.13
   4 -19  -7  636.29   34.14
   4 -19  -6    4.82    2.59
   4  19  -6    9.05    4.23
   4  19  -6    8.72    3.50
   4 -19  -6    4.70    2.96
   4 -19  -5  528.65   28.18
   4  19  -5  552.35   31.23
   4 -19  -5  503.21   28.71
   4  19  -5  586.19   30.78
   4 -19  -4    5.44    2.90
   4  19  -4   13.38    4.98
   4 -19  -3  726.51   37.85
   4  19  -3  729.93   38.57
   4  19  -3  785.54   40.10
   4  19  -2   31.83    5.09
   4  19  -2   37.91    6.20
   4  19  -1  457.62   26.63
   4  19  -1  490.16   27.44
   4  19   0    5.99    3.70
   4  19   1  881.41   46.32
   4  19   1  860.74   44.67
  -4  19  -2   23.38    3.48
   4  19   2   21.57    5.03
   4  19   3  237.64   16.29
  -4  19  -3  260.50   14.86
  -4  19  -4    0.68    2.60
   4  19   4    1.30    2.43
  -4  19  -4    4.25    2.48
  -4  19  -5  315.12   19.43
  -4  19  -5  379.45   19.37
  -4  19  -6   12.10    2.71
  -4  19  -6   11.70    2.60
  -4  19  -7  780.66   37.71
  -4  19  -8    9.87    1.74
   4  20  -8   98.55    5.98
   4 -20  -8    0.17    0.39
   4 -20  -7   -0.25    0.69
   4  20  -7    2.14    2.68
   4 -20  -7   -0.36    1.85
   4 -20  -7    0.52    2.28
   4  20  -7    0.61    2.38
   4 -20  -6  175.52   10.90
   4 -20  -6  180.44   11.77
   4  20  -6  153.88   12.14
   4 -20  -5    2.90    2.23
   4 -20  -5    1.20    2.44
   4  20  -5   -1.62    3.62
   4  20  -5    3.76    3.45
   4 -20  -4    8.84    2.72
   4 -20  -4    6.52    3.13
   4  20  -4    7.64    4.09
   4  20  -4    8.32    4.09
   4  20  -3   25.98    4.48
   4  20  -3   27.51    5.55
   4  20  -3   29.10    5.98
   4  20  -2  195.04   13.25
   4  20  -2  186.23   13.83
   4  20  -1   22.62    4.38
   4  20  -1   20.25    4.92
   4  20   0  231.83   17.14
   4  20   0  256.71   16.37
   4  20   1   18.10    3.71
   4  20   1   17.20    4.96
   4  20   2  261.51   17.24
   4  20   2  248.85   16.14
   4  20   3    2.23    2.66
  -4  20  -3   -0.89    2.05
   4  20   3    0.69    2.82
  -4  20  -4    6.28    2.48
   4  20   4    9.31    2.78
  -4  20  -4    6.00    2.73
  -4  20  -5   -0.82    1.92
   4  20   5   -2.06    2.14
  -4  20  -5   -0.51    2.01
  -4  20  -6   24.99    2.97
  -4  20  -6   14.71    2.79
  -4  20  -7    2.71    1.33
   4  21  -7  396.79   22.35
   4  21  -7  424.79   21.99
   4 -21  -6   11.63    2.18
   4 -21  -6   13.71    2.91
   4  21  -6   12.16    3.40
   4 -21  -5  591.88   30.07
   4  21  -5  687.56   33.71
   4 -21  -5  595.81   30.92
   4 -21  -4    0.41    1.96
   4  21  -4    1.53    3.34
   4  21  -4    0.94    3.51
   4 -21  -3  554.12   28.55
   4  21  -3  630.18   32.80
   4  21  -3  544.79   30.76
   4  21  -2   15.76    3.85
   4  21  -2   14.90    4.49
   4  21  -1  361.54   21.19
   4  21  -1  381.26   23.21
   4  21  -1  370.55   21.85
   4  21   0   -0.93    3.80
   4  21   0   -0.72    2.96
   4  21   1  551.95   30.94
   4  21   1  634.61   32.87
   4  21   2   60.63    6.32
   4  21   2   60.26    6.97
   4  21   3  171.83   11.52
  -4  21  -3  183.92   11.49
   4  21   3  153.00   11.39
  -4  21  -4    2.05    2.36
   4  21   4   -1.05    2.27
  -4  21  -4   -0.70    1.63
  -4  21  -5  573.37   27.97
  -4  21  -5  537.97   27.07
  -4  21  -6   11.09    1.80
   4  22  -7   21.03    2.99
   4  22  -6   45.53    5.22
   4  22  -6   40.78    4.82
   4  22  -5    6.91    2.88
   4  22  -5    1.31    2.47
   4  22  -4  435.56   23.97
   4  22  -4  383.16   22.53
   4  22  -3   25.79    4.45
   4  22  -3   44.24    6.18
   4  22  -2  288.85   17.57
   4  22  -1   33.81    4.60
   4  22  -1   36.60    5.01
   4  22   0 1203.44   58.93
   4  22   0 1246.10   61.05
   4  22   1    2.37    2.37
   4  22   1    5.33    3.50
   4  22   2  166.06   10.94
   4  22   2  157.16   11.40
   4  22   3    3.41    2.14
  -4  22  -3    2.42    2.13
   4  22   3    2.52    1.89
  -4  22  -4  574.26   28.79
   4  23  -6    0.84    1.57
   4  23  -5   55.74    5.43
   4  23  -5   29.74    3.71
   4  23  -4   -1.75    2.55
   4  23  -4    1.92    2.81
   4  23  -4   -1.60    2.52
   4  23  -3   31.05    4.47
   4  23  -3   28.12    4.80
   4  23  -3   28.95    4.18
   4  23  -2    3.91    2.69
   4  23  -1   11.55    2.83
   4  23  -1   20.32    4.11
   4  23   0    5.51    2.87
   4  23   1    8.71    2.55
   4  23   1    3.12    2.65
  -4  23  -2   23.54    3.38
   4  23   2   26.90    3.53
   4  23   2   23.86    3.74
   4  24  -4  311.02   17.85
   4  24  -4  361.89   18.15
   4  24  -3    2.12    1.70
   4  24  -3    2.18    2.14
   4  24  -2  223.56   12.79
   4  24  -1   11.09    2.11
   4  24  -1    9.69    2.81
   4  24   0  189.22   12.03
   4  24   1    1.82    1.79
   4  25  -1  250.12   13.93
   5   0 -13  112.48    8.41
   5   0 -12   -1.42    3.59
   5   0 -12    0.52    2.47
   5   0 -11  616.43   32.17
   5   0 -11  563.34   30.55
   5   0 -10    1.87    3.88
   5   0 -10    3.18    5.08
   5   0 -10    4.07    3.69
   5   0  -9 2664.78  125.48
   5   0  -9 2530.00  138.64
   5   0  -9 2718.16  123.60
   5   0  -9 2558.22  124.57
   5   0  -8   16.79    4.26
   5   0  -8    8.16    3.06
   5   0  -8   11.78    3.00
   5   0  -8   18.39    6.67
   5   0  -7 4659.18  227.07
   5   0  -7 4878.31  226.38
   5   0  -7 5045.32  239.05
   5   0  -7 5014.56  225.67
   5   0  -7 5127.11  227.13
   5   0  -6    3.90    4.95
   5   0  -6    8.87    1.97
   5   0  -6    9.69    2.85
   5   0  -5  824.14   48.24
   5   0  -4    0.81    1.59
   5   0  -4    1.89    4.00
   5   0  -3 2652.50  122.86
   5   0  -3 2682.77  132.47
   5   0  -2   19.65    2.94
   5   0  -2   13.45    5.10
   5   0  -1 1772.18   84.16
   5   0  -1 1882.64   89.30
  -5   0   0    2.97    1.96
   5   0   0    7.36    4.05
   5   0   0   -1.56    3.53
   5   0   1 2047.40   95.98
  -5   0  -1 1956.58   97.97
   5   0   1 2246.12  105.15
   5   0   1 2145.49  102.96
  -5   0  -2   42.25    5.87
   5   0   2   42.82    7.92
  -5   0  -3 2807.61  132.40
   5   0   3 3224.91  142.98
  -5   0  -4    0.91    1.75
   5   0   4   -1.84    3.60
   5   0   4    3.53    4.24
  -5   0  -5 1702.82   80.74
   5   0   5 1702.90   89.76
   5   0   5 1718.08   90.72
   5   0   6   -2.21    4.34
   5   0   6   -1.95    3.83
  -5   0  -6    2.97    2.28
  -5   0  -6    9.29    5.15
   5   0   7 1110.79   68.99
  -5   0  -7 1185.22   60.54
  -5   0  -7 1232.37   57.60
  -5   0  -7 1261.92   59.34
  -5   0  -7 1108.08   66.23
  -5   0  -7 1174.15   74.69
  -5   0  -8    3.31    5.30
   5   0   8    2.42    4.33
  -5   0  -8   -0.45    2.13
  -5   0  -8   -1.76    3.52
  -5   0  -9  355.58   21.55
  -5   0 -10   -0.73    2.85
  -5   0 -11 2575.32  120.27
   5  -1 -13   -0.53    2.35
   5  -1 -13    0.78    2.06
   5  -1 -12   15.00    3.44
   5   1 -12   13.08    3.22
   5   1 -12   10.06    4.19
   5  -1 -12   13.23    3.83
   5   1 -11   17.09    3.88
   5   1 -11   11.46    4.37
   5  -1 -11    5.49    3.53
   5  -1 -10   45.43    6.94
   5  -1 -10   47.01   11.42
   5   1 -10   48.95    6.25
   5  -1 -10   48.71    6.62
   5  -1  -9    2.58    3.44
   5  -1  -9    2.20    2.76
   5  -1  -9   14.67    7.79
   5  -1  -9    5.29    2.87
   5  -1  -9    5.32    3.65
   5   1  -8  214.09   13.97
   5  -1  -8  171.63   13.08
   5  -1  -8  210.31   13.56
   5  -1  -8  217.23   14.26
   5  -1  -8  225.33   12.97
   5  -1  -8  201.04   21.80
   5   1  -7   18.26    3.68
   5  -1  -7   12.79    3.36
   5  -1  -7   12.90    3.22
   5  -1  -7   11.05    3.49
   5   1  -7   10.24    2.58
   5  -1  -7    2.26    4.08
   5  -1  -7   13.75    2.80
   5   1  -7   12.21    2.60
   5  -1  -6   61.10    6.28
   5  -1  -6   60.61    5.86
   5  -1  -6   64.05   10.41
   5  -1  -6   48.71    4.55
   5   1  -6   58.70    4.76
   5   1  -6   67.27    5.91
   5  -1  -6   67.48    5.95
   5  -1  -5    4.71    2.30
   5  -1  -5    3.75    1.65
   5  -1  -5    8.47    5.08
   5  -1  -4  175.14   10.19
   5   1  -4  144.21    9.48
   5  -1  -4  165.54   10.38
   5  -1  -4  148.89   16.07
   5  -1  -3    4.61    2.11
   5   1  -3    7.24    2.18
   5  -1  -3    5.25    4.21
   5  -1  -2  344.58   18.80
   5   1  -2  354.61   18.88
   5   1  -1   15.83    2.74
   5  -1  -1    8.82    2.27
  -5   1   1   12.11    2.03
   5  -1  -1   11.44    3.37
   5  -1   0  236.93   13.88
  -5   1   0  245.98   14.15
   5   1   0  253.81   18.55
   5  -1   0  259.60   18.34
   5  -1   1   -0.89    1.89
   5  -1   1   -1.33    3.02
   5   1   1   -1.43    3.43
   5  -1   1   -1.61    3.86
   5   1   1   -3.24    4.10
   5   1   1    1.57    1.04
  -5   1  -1   -0.64    1.86
  -5  -1  -1   -0.85    2.36
   5  -1   2 1745.21   79.27
   5   1   2 1931.05   88.87
   5  -1   2 1787.23   87.92
   5  -1   2 1770.17   86.73
  -5  -1  -2 1569.06   77.85
  -5  -1  -2 1718.46   83.22
   5   1   3    3.44    3.91
   5  -1   3   10.23    5.12
   5   1   3   13.52    5.43
  -5  -1  -3    9.22    2.07
  -5  -1  -3   14.52    4.56
  -5   1  -4  113.47    8.07
  -5  -1  -4  119.06    7.92
   5   1   4  108.16   13.24
   5  -1   4   86.33   12.18
   5   1   4  131.26   14.17
   5   1   5    2.03    4.31
   5  -1   5    5.76    4.07
   5   1   5    5.49    4.63
  -5   1  -5    3.28    2.15
  -5  -1  -5    4.61    2.29
  -5   1  -5    1.79    3.79
   5  -1   6  398.74   29.17
   5  -1   6  409.50   30.37
   5   1   6  332.36   28.35
  -5   1  -6  388.56   21.37
  -5  -1  -6  382.53   21.17
  -5   1  -6  352.67   27.62
  -5  -1  -6  386.62   27.76
  -5  -1  -7    2.56    3.08
  -5   1  -7    5.93    3.88
  -5  -1  -7    5.42    3.83
  -5   1  -7    7.45    2.26
  -5  -1  -7    5.97    2.25
   5  -1   7    9.51    6.32
   5   1   7   -2.37    4.65
  -5   1  -7    2.64    2.99
  -5  -1  -7   16.25    7.36
  -5  -1  -7    2.51    3.74
  -5  -1  -8   13.84    4.98
  -5   1  -8   14.10    2.90
  -5  -1  -8    9.75    2.63
   5  -1   8   14.53    6.45
   5   1   8   16.85    6.12
  -5   1  -8   15.52    3.79
  -5  -1  -8   19.60    9.08
  -5  -1  -9   14.27    2.91
  -5  -1  -9   18.13    4.67
  -5  -1 -10  167.04   11.97
  -5  -1 -11    6.62    2.84
  -5   1 -12   28.12    2.52
   5  -2 -14   -0.89    1.22
   5  -2 -13  188.95   11.76
   5  -2 -13  183.94   10.97
   5  -2 -12   -0.51    2.52
   5   2 -12    1.04    2.58
   5   2 -12    2.89    3.42
   5  -2 -12    3.38    3.30
   5  -2 -11  198.03   14.09
   5   2 -11  195.61   14.32
   5   2 -11  218.25   13.52
   5   2 -10   13.94    3.86
   5  -2 -10   15.44    3.89
   5  -2 -10    8.25    3.98
   5  -2 -10    6.13    6.02
   5   2 -10   12.70    6.74
   5  -2 -10    6.27    3.74
   5  -2  -9  687.39   33.96
   5  -2  -9  657.37   35.51
   5  -2  -9  613.34   34.50
   5  -2  -9  674.72   46.92
   5   2  -9  666.89   47.59
   5  -2  -9  665.76   34.93
   5   2  -8   30.49    4.79
   5  -2  -8   42.57    5.37
   5  -2  -8   19.64    4.51
   5  -2  -8   30.02    4.59
   5  -2  -8   34.42    4.45
   5  -2  -8   25.82    8.86
   5   2  -8   13.13    7.09
   5  -2  -8   26.92    4.62
   5  -2  -7 1288.74   60.56
   5   2  -7 1226.42   60.02
   5   2  -7 1152.72   60.09
   5  -2  -7 1191.67   60.14
   5  -2  -7 1271.23   59.95
   5  -2  -7 1414.50   72.26
   5   2  -7 1153.69   60.85
   5  -2  -7 1283.70   58.92
   5  -2  -6   21.18    3.84
   5  -2  -6   23.65    3.93
   5  -2  -6   34.79    8.25
   5  -2  -6   23.28    2.89
   5   2  -6   24.05    3.75
   5  -2  -5 1093.14   57.00
   5  -2  -5 1041.69   48.87
   5  -2  -5  936.83   47.85
   5  -2  -4   11.27    5.24
   5  -2  -4   12.01    2.57
   5  -2  -4   15.99    2.80
   5  -2  -3 1088.20   62.73
   5  -2  -3 1159.26   55.00
   5  -2  -2   18.15    5.46
   5   2  -2   12.74    2.50
   5  -2  -2    7.20    2.19
   5  -2  -1  198.18   12.02
   5  -2  -1  215.46   15.26
   5  -2  -1  212.68   17.45
   5  -2   0   36.06    4.17
   5  -2   0   34.52    5.92
   5   2   0   45.15    7.25
  -5  -2  -1  760.27   38.55
   5  -2   1  683.94   34.90
   5  -2   1  737.22   42.51
   5  -2   1  741.33   40.76
   5   2   1  670.59   35.65
  -5   2  -2   38.39    3.42
  -5  -2  -2   32.21    3.17
  -5  -2  -2   25.64    5.58
   5  -2   2   29.11    6.57
   5   2   2   29.88    4.90
   5  -2   2   26.51    6.68
  -5   2  -3  450.24   24.04
   5  -2   3  517.59   25.19
  -5  -2  -3  455.01   23.96
   5  -2   3  488.27   32.33
   5   2   3  541.07   33.47
  -5  -2  -3  537.73   30.85
  -5  -2  -4    3.00    1.73
   5   2   4   13.34    6.10
   5  -2   4   11.09    5.13
  -5  -2  -4   10.63    4.21
  -5   2  -5  589.06   38.22
  -5   2  -5  555.89   30.46
  -5  -2  -5  607.84   30.36
   5  -2   5  624.71   39.55
   5   2   5  660.04   40.42
  -5  -2  -6   15.52    5.21
  -5   2  -6    4.00    5.36
  -5  -2  -6   14.94    3.32
  -5   2  -6   15.63    2.79
   5   2   6   28.87    8.36
   5  -2   6    6.27    4.48
  -5   2  -6   24.00    4.19
  -5  -2  -7  117.86   14.34
  -5  -2  -7  173.29   10.30
   5  -2   7  149.76   18.05
   5   2   7  132.08   17.12
   5  -2   7  141.32   16.72
  -5  -2  -7  168.81   12.71
  -5   2  -7  184.95   18.32
  -5   2  -7  180.02   11.84
  -5   2  -7  192.26   22.62
  -5  -2  -7  174.91   21.50
   5  -2   8    2.42    4.32
   5   2   8   -2.38    5.39
  -5  -2  -8    0.44    2.02
  -5   2  -8    0.68    2.77
  -5   2  -8    6.63    5.93
  -5  -2  -8   -3.19    6.76
  -5  -2  -8   -1.69    3.51
  -5  -2  -9  755.05   37.14
  -5  -2  -9  764.70   39.87
  -5  -2 -10    2.10    2.81
  -5   2 -11  944.46   45.89
  -5  -2 -11  915.38   45.73
  -5   2 -12   -0.20    1.06
   5  -3 -14  404.70   19.75
   5  -3 -13    0.48    2.28
   5  -3 -13    0.74    2.24
   5  -3 -12  155.21   11.05
   5   3 -12  153.07   11.45
   5  -3 -11   12.24    3.51
   5  -3 -11   14.11    3.95
   5   3 -11   15.87    4.16
   5  -3 -10  367.97   21.33
   5   3 -10  373.42   20.62
   5  -3 -10  373.89   22.17
   5   3 -10  348.78   22.05
   5  -3 -10  395.10   20.67
   5  -3 -10  311.37   30.68
   5   3 -10  350.83   32.62
   5  -3 -10  322.91   19.16
   5   3  -9   54.92    6.78
   5  -3  -9   42.27    5.90
   5   3  -9   49.36    5.54
   5  -3  -9   39.68    6.20
   5   3  -9   49.33    6.41
   5  -3  -9   39.69    5.64
   5  -3  -9   50.12    5.58
   5  -3  -9   39.12    5.79
   5  -3  -9   44.96   10.51
   5   3  -9   46.98   11.45
   5   3  -8  878.17   42.61
   5  -3  -8  825.68   42.11
   5   3  -8  828.34   41.01
   5   3  -8  811.52   42.60
   5  -3  -8  804.19   41.97
   5  -3  -8  792.54   42.42
   5  -3  -8  853.15   41.11
   5  -3  -8  821.34   52.84
   5   3  -8  866.29   54.28
   5  -3  -8  801.31   42.42
   5  -3  -7   76.34    7.29
   5   3  -7   76.11    6.93
   5   3  -7   77.53    6.00
   5  -3  -7   85.88    7.23
   5  -3  -7   64.54    6.85
   5   3  -7   68.73    6.92
   5  -3  -7   86.62    7.12
   5   3  -7   68.83    7.41
   5  -3  -7   70.58    6.03
   5  -3  -7   62.16   11.59
   5   3  -7   67.84   11.79
   5  -3  -6  789.35   45.51
   5   3  -6  826.83   46.62
   5  -3  -6  746.90   37.14
   5   3  -6  722.67   36.22
   5   3  -6  719.18   35.08
   5  -3  -6  726.35   35.15
   5   3  -6  693.80   37.62
   5  -3  -6  691.26   36.24
   5   3  -6  719.04   36.49
   5  -3  -6  702.43   37.32
   5  -3  -5    3.35    4.24
   5   3  -5    5.14    4.34
   5  -3  -5    2.29    2.29
   5   3  -4 1008.39   58.84
   5  -3  -4 1033.27   58.96
   5  -3  -4 1034.16   50.15
   5   3  -3   12.41    5.71
   5  -3  -3   17.29    5.91
   5   3  -2 1639.42   87.36
   5  -3  -2 1717.96   87.44
   5  -3  -2 1679.44   79.07
   5  -3  -1   12.41    3.38
   5  -3  -1   11.89    4.64
   5  -3   0  665.02   37.61
   5  -3   0  666.91   33.32
   5  -3   1   10.22    4.14
   5   3   1   15.70    3.38
   5  -3   1   11.91    2.79
  -5  -3  -2 3332.40  162.03
   5  -3   2 3516.91  157.05
   5  -3   2 3479.18  165.78
   5   3   2 3170.16  159.89
   5   3   2 3603.62  166.14
  -5   3  -2 3376.45  155.85
  -5  -3  -3    4.50    1.57
  -5  -3  -3    4.17    3.52
   5  -3   3    2.46    2.02
  -5   3  -3    1.58    1.55
   5   3   3    1.84    3.29
   5  -3   3    7.14    4.29
   5  -3   4  290.11   23.35
   5   3   4  297.52   23.82
  -5   3  -4  290.38   16.09
  -5  -3  -4  278.53   15.63
  -5  -3  -4  277.46   21.56
  -5  -3  -5    6.49    2.56
   5   3   5    2.09    4.43
   5  -3   5    4.09    4.63
  -5   3  -5    0.58    2.38
  -5   3  -5    1.94    4.65
  -5  -3  -6  366.56   27.51
  -5   3  -6  370.13   29.23
  -5   3  -6  427.02   22.89
   5  -3   6  409.64   30.82
   5   3   6  430.87   31.69
  -5   3  -7    4.27    4.52
  -5  -3  -7    0.84    2.06
   5   3   7    2.35    5.63
   5  -3   7   -2.18    4.27
  -5   3  -7    4.81    3.11
  -5   3  -7   -3.29    6.95
  -5  -3  -7    3.10    4.30
  -5   3  -7    3.41    3.48
  -5  -3  -7    4.81    3.46
  -5  -3  -8   33.91    4.12
   5  -3   8   31.32    8.56
   5   3   8   35.23    8.76
  -5   3  -8   36.38    5.02
  -5   3  -8   35.93   10.90
  -5  -3  -8   40.36   10.37
  -5   3  -8   31.41    5.42
  -5  -3  -8   46.99    6.26
  -5  -3  -9   17.06    2.95
  -5   3  -9    8.17    4.04
  -5  -3  -9   23.33    4.88
  -5   3  -9   17.84    3.78
  -5   3 -10  752.08   39.23
  -5  -3 -10  772.26   39.17
  -5   3 -11    2.09    2.09
  -5  -3 -11    3.04    2.33
   5  -4 -14    1.14    1.14
   5  -4 -13   11.43    2.56
   5  -4 -13   11.59    3.03
   5  -4 -12    1.24    2.90
   5  -4 -11   59.77    5.93
   5  -4 -11   56.08    6.45
   5   4 -11   61.85    6.28
   5  -4 -11   48.79    4.87
   5  -4 -10   13.60    3.72
   5  -4 -10   16.61    4.60
   5   4 -10   19.02    4.07
   5   4 -10   13.95    3.93
   5  -4 -10    9.73    4.62
   5   4 -10   14.62    4.83
   5  -4 -10    6.70    3.10
   5  -4 -10   14.29    6.88
   5   4 -10   12.28    7.39
   5  -4 -10   12.22    2.77
   5   4  -9   49.31    6.24
   5  -4  -9   39.75    5.52
   5   4  -9   42.97    5.21
   5  -4  -9   41.84    5.98
   5   4  -9   44.11    6.39
   5  -4  -9   33.50    5.35
   5  -4  -9   39.52    5.01
   5  -4  -9   29.66    5.27
   5  -4  -9   35.52    9.69
   5   4  -9   23.19    8.22
   5   4  -8   38.69    5.42
   5   4  -8   33.99    4.45
   5  -4  -8   27.13    4.90
   5  -4  -8   15.71    4.31
   5   4  -8   31.70    5.05
   5  -4  -8   29.96    4.79
   5  -4  -8   30.41    4.24
   5  -4  -8   37.29    9.21
   5   4  -8   20.78    7.02
   5  -4  -8   33.11    5.49
   5  -4  -7 1088.96   52.30
   5   4  -7 1031.34   51.30
   5  -4  -7 1114.39   51.74
   5   4  -7 1049.14   50.08
   5  -4  -7  991.95   51.28
   5  -4  -7 1023.37   51.29
   5   4  -7  991.09   51.40
   5   4  -7  954.90   52.28
   5  -4  -7 1030.92   61.03
   5   4  -7 1025.68   61.39
   5  -4  -7 1094.39   50.36
   5  -4  -6   17.42    3.33
   5   4  -6   15.14    3.15
   5   4  -6   21.35    4.10
   5  -4  -6   18.73    3.75
   5  -4  -6   23.81    4.51
   5   4  -6   23.81    3.71
   5   4  -6   20.39    2.93
   5  -4  -6   25.10    3.15
   5  -4  -6   19.02    5.56
   5   4  -6   19.59    5.94
   5  -4  -5  138.35   13.87
   5   4  -5  120.91   13.47
   5  -4  -5  119.55    8.91
   5  -4  -5  110.49    9.22
   5  -4  -4   -0.54    2.25
   5   4  -4    1.91    3.75
   5  -4  -4    1.86    3.94
   5   4  -3  128.01   13.96
   5  -4  -3  111.94   13.09
   5  -4  -2   15.44    4.72
   5  -4  -2   21.14    3.40
   5   4  -2   18.90    6.06
   5  -4  -2   29.35    7.32
   5  -4  -1    0.92    1.94
   5  -4  -1    7.51    3.99
   5  -4   0    4.41    2.80
   5  -4   0    4.71    3.98
   5  -4   1  779.74   38.37
  -5   4  -1  752.62   37.00
   5   4   1  803.65   45.73
   5  -4   1  800.00   43.53
   5   4   1  787.45   41.45
   5  -4   2   -0.50    2.01
  -5   4  -2    0.37    1.45
   5   4   2   -1.13    2.01
   5   4   2    1.77    3.48
   5  -4   2    3.47    4.17
  -5  -4  -2    1.28    3.07
   5  -4   3  160.76   10.54
  -5   4  -3  162.56   10.12
  -5  -4  -3  153.45   14.58
   5  -4   3  151.10   16.00
   5   4   3  201.86   18.29
   5  -4   4    1.01    2.09
  -5   4  -4    1.98    2.24
   5  -4   4   -1.97    3.87
  -5  -4  -4    3.35    4.02
   5   4   5   19.19    6.40
   5  -4   5   10.58    5.10
  -5   4  -5    4.03    5.60
  -5  -4  -5    5.67    5.03
  -5   4  -6    2.00    2.62
   5   4   6    2.25    4.77
   5  -4   6   -2.23    3.98
  -5   4  -6    4.32    4.58
  -5  -4  -6   -1.59    3.59
  -5  -4  -7  207.84   11.54
  -5   4  -7  174.61   18.72
  -5   4  -7  207.50   13.25
  -5   4  -7  154.76   22.02
  -5  -4  -7  150.62   20.80
  -5   4  -7  189.50   13.66
  -5  -4  -7  166.38   12.94
   5  -4   7  174.31   18.97
   5   4   7  186.96   19.49
  -5   4  -8   -0.69    3.12
  -5   4  -8    6.37    5.70
  -5  -4  -8    3.00    5.88
  -5   4  -8    2.57    3.56
  -5  -4  -8    1.60    3.32
  -5  -4  -8    0.86    2.04
  -5  -4  -9   21.12    3.08
  -5   4  -9   19.82    4.26
  -5  -4  -9   24.64    4.49
  -5   4  -9   17.07    3.83
  -5  -4 -10    9.29    2.32
  -5   4 -10   12.08    3.51
  -5  -4 -10   12.79    3.54
  -5   4 -11  178.21   11.56
  -5  -4 -11  194.82   11.69
   5  -5 -13   13.28    2.73
   5  -5 -13   11.16    2.41
   5  -5 -12   76.15    6.95
   5  -5 -11   23.13    4.15
   5  -5 -11   23.52    4.65
   5   5 -11   29.71    5.47
   5  -5 -11   21.38    3.22
   5  -5 -10   87.33    8.40
   5   5 -10   99.89    8.01
   5  -5 -10   88.65    8.00
   5  -5 -10   87.45   14.50
   5   5 -10   62.91   13.24
   5  -5 -10   96.17    7.73
   5  -5 -10   84.13    8.42
   5   5 -10   99.41    9.16
   5  -5 -10   62.65    6.29
   5  -5  -9    4.39    3.23
   5   5  -9   13.35    4.45
   5   5  -9   10.21    3.49
   5  -5  -9   10.57    6.35
   5   5  -9    8.56    6.05
   5  -5  -9   10.05    3.20
   5  -5  -9    4.34    3.56
   5  -5  -9   12.39    4.40
   5   5  -9    8.61    4.21
   5  -5  -9   10.33    3.89
   5  -5  -8  756.06   40.23
   5   5  -8  767.40   38.24
   5  -5  -8  826.36   39.72
   5  -5  -8  755.32   49.25
   5   5  -8  745.83   49.91
   5   5  -8  685.21   39.67
   5  -5  -8  774.43   39.78
   5   5  -8  744.27   39.48
   5   5  -8  724.26   39.62
   5  -5  -8  746.92   39.48
   5  -5  -8  839.34   38.63
   5   5  -7    1.28    2.41
   5   5  -7    1.82    2.19
   5  -5  -7    0.66    2.48
   5  -5  -7    2.16    4.57
   5   5  -7    4.52    4.78
   5  -5  -7    0.95    2.27
   5  -5  -7    0.78    2.94
   5  -5  -7   -1.34    2.33
   5  -5  -7    1.29    2.93
   5   5  -7   -0.67    2.58
   5   5  -7   -1.70    2.54
   5  -5  -6  510.68   28.92
   5   5  -6  533.22   29.15
   5  -5  -6  611.95   30.52
   5   5  -6  564.32   28.08
   5   5  -6  559.84   29.10
   5  -5  -6  540.37   30.51
   5  -5  -6  621.52   38.03
   5   5  -6  617.86   38.45
   5  -5  -6  572.94   28.21
   5   5  -6  588.13   30.84
   5  -5  -5   16.34    3.62
   5   5  -5   13.15    3.39
   5  -5  -5   14.89    3.78
   5   5  -4  484.85   33.38
   5  -5  -4  492.62   33.28
   5  -5  -3    7.80    2.56
   5   5  -3    9.02    1.85
   5   5  -3    7.13    4.30
   5  -5  -3    8.58    4.77
   5  -5  -2  345.57   18.53
   5  -5  -2  308.17   23.13
   5   5  -2  342.43   25.25
   5  -5  -2  333.47   24.62
   5  -5  -1   10.50    3.16
   5  -5  -1    7.63    4.07
   5  -5   0 2046.53  103.65
   5  -5   0 2036.49   99.77
   5   5   1    4.57    3.18
  -5   5  -2  601.37   29.98
   5  -5   2  599.81   30.73
   5   5   2  615.11   38.87
   5  -5   2  657.50   39.21
   5   5   2  562.99   34.93
  -5   5  -3   -1.72    3.89
  -5   5  -3    0.46    1.82
   5  -5   3    2.07    2.12
   5   5   3    1.46    2.87
   5   5   3    1.98    3.54
  -5  -5  -3    3.12    3.75
  -5   5  -4 2251.55  107.94
   5  -5   4 2258.47  118.25
   5   5   4 2211.18  118.34
   5  -5   4 2435.17  108.10
  -5  -5  -4 2228.16  116.06
  -5  -5  -5    7.82    4.95
  -5   5  -5    7.02    2.62
  -5   5  -5   -2.10    4.77
   5   5   5    8.75    5.25
   5  -5   5   13.12    5.81
  -5   5  -6   36.09    5.25
  -5  -5  -6   47.41    5.59
   5   5   6   31.85    8.15
   5  -5   6   50.55   10.08
  -5   5  -6   42.56    9.15
  -5  -5  -6   33.10    6.64
  -5   5  -6   33.51   10.22
  -5  -5  -6   33.77    9.73
  -5   5  -6   55.86    6.04
  -5   5  -7    3.31    2.97
  -5  -5  -7    4.57    2.92
   5   5   7   -2.32    4.55
   5  -5   7    2.30    4.50
  -5  -5  -7    6.33    2.37
  -5   5  -7    3.57    3.38
  -5   5  -7    6.29    6.66
  -5  -5  -7   11.68    7.75
  -5   5  -8   77.13    7.92
   5   5   8   78.57   12.72
  -5  -5  -8   88.33    8.14
  -5  -5  -8   87.04    6.51
  -5   5  -8   81.35    7.67
  -5   5  -8   52.22   13.06
  -5  -5  -8   69.02   14.10
  -5   5  -9   -0.62    2.64
  -5   5  -9   -0.76    2.72
  -5  -5  -9    4.26    3.17
  -5  -5  -9    0.39    1.94
  -5   5 -10  400.71   22.49
  -5  -5 -10  402.30   22.36
  -5  -5 -10  406.54   20.40
  -5   5 -11    0.66    1.55
   5  -6 -13  349.31   18.06
   5  -6 -13  353.16   18.29
   5  -6 -12   -0.54    2.75
   5   6 -11  236.77   14.97
   5  -6 -11  226.21   13.86
   5  -6 -11  237.38   13.32
   5  -6 -10    1.20    3.18
   5  -6 -10    4.19    3.49
   5  -6 -10    3.60    3.15
   5   6 -10    3.46    3.53
   5   6 -10    0.63    2.98
   5  -6 -10    0.83    3.69
   5   6  -9 1017.60   51.94
   5  -6  -9 1064.82   51.92
   5   6  -9 1039.50   52.09
   5  -6  -9 1030.47   51.76
   5  -6  -9 1011.62   50.21
   5  -6  -9  962.07   51.98
   5  -6  -9  994.00   51.00
   5   6  -9 1043.36   50.38
   5  -6  -9  974.17   61.78
   5   6  -9 1037.70   64.01
   5  -6  -8   -2.37    5.02
   5   6  -8   12.75    7.36
   5  -6  -8    9.16    3.77
   5  -6  -8    5.18    3.25
   5   6  -8    8.55    3.47
   5   6  -8   12.37    3.47
   5  -6  -8    2.66    3.70
   5  -6  -8    7.08    3.11
   5   6  -8    5.97    2.61
   5   6  -8    5.34    3.00
   5  -6  -8    0.55    2.62
   5  -6  -7 2210.93  109.06
   5   6  -7 2104.27  109.28
   5  -6  -7 2141.35   99.53
   5   6  -7 1981.86   98.00
   5  -6  -7 2123.36   98.25
   5   6  -7 1967.86   98.11
   5   6  -7 1998.76   99.53
   5  -6  -7 2135.38   97.09
   5   6  -7 2033.31   96.79
   5  -6  -7 2141.25   98.47
   5  -6  -6    3.70    3.08
   5   6  -6    3.37    1.97
   5  -6  -6    2.90    1.91
   5  -6  -6    5.64    4.52
   5   6  -6    1.99    4.22
   5   6  -6    1.68    2.06
   5   6  -6    3.66    2.01
   5   6  -6    7.17    3.19
   5  -6  -6    1.66    2.13
   5   6  -6    7.56    2.76
   5   6  -5 1820.96   88.91
   5  -6  -5 1863.63   88.61
   5   6  -5 1874.41   86.42
   5   6  -4    1.25    1.12
   5  -6  -4   -0.68    2.19
   5  -6  -3  800.10   38.44
   5   6  -3  744.52   36.88
   5   6  -3  706.93   45.29
   5  -6  -3  804.60   46.11
   5   6  -2   15.48    5.00
   5  -6  -2    8.13    4.35
   5  -6  -2   12.14    2.92
   5  -6  -2   19.14    5.43
   5  -6  -1  190.51   11.85
   5  -6  -1  196.40   17.11
   5  -6  -1  204.76   13.98
   5  -6   0    7.56    3.01
   5  -6   0    8.32    4.63
   5  -6   1 3256.60  164.15
   5   6   1 3462.76  161.73
  -5   6  -2   38.62    7.49
  -5   6  -2   21.50    3.21
   5  -6   2   26.63    4.03
   5   6   2   40.74    6.98
   5   6   2   18.98    6.55
  -5   6  -3 2810.07  129.57
  -5   6  -3 2619.37  119.37
   5  -6   3 2589.85  119.60
   5   6   3 2422.59  120.48
   5   6   3 2675.52  130.72
   5   6   3 2696.45  127.67
  -5  -6  -3 2280.72  126.47
  -5   6  -4    3.88    2.51
   5  -6   4    0.52    2.14
  -5  -6  -4   -3.69    5.11
   5   6   4    1.81    3.84
   5   6   4    2.16    4.57
  -5   6  -5 1070.13   51.63
  -5  -6  -5 1064.00   60.66
  -5   6  -5  964.13   60.64
   5   6   5  997.62   61.38
   5  -6   5 1083.70   62.34
  -5   6  -6   -1.54    3.25
  -5  -6  -6   -0.70    2.69
   5   6   6    4.61    4.52
   5  -6   6    2.36    5.35
  -5   6  -6    2.97    5.83
  -5  -6  -6   -2.74    5.37
  -5   6  -6   -2.32    5.25
   5   6   7  133.49   16.42
  -5  -6  -7  145.95   11.04
   5  -6   7  138.83   17.15
  -5   6  -7  152.19   11.55
  -5   6  -7  162.45   11.50
  -5   6  -7  139.71   19.40
  -5  -6  -7  163.28   19.90
  -5   6  -8   22.96    4.33
  -5  -6  -8   13.46    2.76
  -5   6  -8   18.27    4.59
  -5  -6  -8   10.98    3.63
  -5   6  -9  652.21   31.86
  -5   6  -9  563.88   31.94
  -5  -6  -9  584.25   31.76
  -5  -6  -9  612.97   29.99
  -5   6 -10   -1.18    2.58
  -5  -6 -10    2.21    2.29
  -5   6 -11  765.76   36.82
   5  -7 -13    0.57    1.45
   5  -7 -13   -0.28    1.45
   5  -7 -12   15.29    3.18
   5  -7 -11   -1.86    2.86
   5  -7 -11    0.41    0.74
   5  -7 -11    2.03    2.43
   5  -7 -11   -0.53    2.86
   5  -7 -10   49.56    5.86
   5  -7 -10   49.58    6.75
   5   7 -10   67.93    6.59
   5  -7 -10   50.03    6.07
   5   7 -10   42.50    6.33
   5  -7 -10   49.60    6.94
   5  -7  -9   10.74    4.29
   5  -7  -9   10.32    3.82
   5   7  -9   15.18    4.38
   5  -7  -9   15.49    3.82
   5  -7  -9   16.02    4.64
   5  -7  -9   17.91    4.27
   5   7  -9   15.81    3.83
   5   7  -9   22.73    5.31
   5  -7  -9   17.15    6.54
   5   7  -9   21.75    8.17
   5  -7  -8   39.31    9.16
   5   7  -8   17.58    6.80
   5  -7  -8   37.34    5.31
   5   7  -8   30.25    4.95
   5  -7  -8   25.21    5.06
   5   7  -8   29.35    5.10
   5   7  -8   31.02    4.28
   5   7  -8   23.43    4.70
   5  -7  -8   32.80    5.06
   5  -7  -8   32.47    5.76
   5  -7  -8   30.53    4.45
   5  -7  -7    0.65    2.55
   5   7  -7   -1.37    3.06
   5   7  -7    0.91    2.61
   5  -7  -7   -0.86    3.46
   5  -7  -7   -4.21    5.59
   5  -7  -7    0.69    2.93
   5   7  -7    0.98    2.03
   5   7  -7    0.69    2.58
   5  -7  -7    0.50    2.18
   5  -7  -6   19.54    4.25
   5   7  -6   18.73    3.44
   5  -7  -6   23.36    3.41
   5   7  -6   23.19    3.17
   5   7  -6   22.97    3.85
   5   7  -6   16.62    3.38
   5  -7  -6   24.72    3.90
   5   7  -6   13.28    3.63
   5   7  -5   22.06    2.99
   5   7  -5   19.29    3.26
   5  -7  -5   23.64    4.47
   5   7  -5   17.54    3.35
   5   7  -5   27.21    4.63
   5  -7  -4  144.12   10.45
   5   7  -4  115.98    9.12
   5   7  -4  129.98    8.22
   5   7  -4  132.14   10.31
   5  -7  -4  147.71   10.15
   5  -7  -3  102.21    8.36
   5   7  -3   98.76   12.67
   5  -7  -3   98.49   12.15
   5  -7  -3  102.79    7.98
   5   7  -3   96.98    6.93
   5   7  -2  336.34   26.55
   5  -7  -2  426.87   27.75
   5  -7  -2  405.72   26.87
   5  -7  -2  386.74   21.10
   5   7  -1    1.71    3.36
   5  -7  -1    1.58    3.35
   5  -7  -1    0.77    2.05
   5  -7  -1   -1.64    3.70
   5  -7  -1    1.50    1.92
   5  -7   0  345.09   25.38
   5  -7   0  346.55   22.21
   5   7   1   -1.51    2.70
  -5   7  -1   -4.56    4.22
  -5   7  -2  409.69   27.23
   5   7   2  332.29   20.70
   5   7   2  406.75   26.87
   5   7   3    7.18    4.31
  -5   7  -3    6.83    2.49
  -5  -7  -3   -1.75    3.44
   5   7   3    0.72    2.38
   5  -7   3    4.40    2.33
  -5   7  -3    1.90    4.02
  -5  -7  -4  373.00   28.06
  -5   7  -4  400.04   29.54
  -5   7  -4  352.56   20.63
   5   7   4  339.53   28.43
   5   7   4  341.93   27.53
   5  -7   4  409.81   20.77
  -5  -7  -5   31.66    8.40
  -5   7  -5   38.46    5.12
   5   7   5   21.29    6.53
   5   7   5   32.12    8.33
   5  -7   6   24.32    7.33
   5   7   6   20.87    7.23
  -5   7  -6   21.39    4.05
  -5   7  -6   19.23    7.25
  -5   7  -6   14.19    3.92
  -5  -7  -6   22.41    4.29
  -5   7  -6    8.61    6.14
  -5  -7  -6   18.53    6.41
  -5   7  -7    0.73    3.15
  -5   7  -7    8.71    6.97
  -5  -7  -7   -2.69    4.82
   5   7   7   -2.26    3.13
   5   7   7    2.26    4.04
   5  -7   7   -2.41    4.31
  -5   7  -7    0.78    3.23
  -5  -7  -7    1.42    2.83
  -5   7  -8   18.75    4.28
  -5  -7  -8   20.24    3.27
  -5   7  -8   15.76    3.98
  -5  -7  -8   19.98    4.14
  -5   7  -9   25.28    4.44
  -5  -7  -9   28.35    3.43
  -5   7  -9   22.17    4.12
  -5  -7  -9   28.57    4.49
  -5   7 -10   15.09    3.12
  -5   7 -10    7.37    2.56
  -5  -7 -10    8.36    2.40
  -5   7 -11    1.76    1.52
   5  -8 -13  636.99   30.54
   5  -8 -12    1.31    2.00
   5  -8 -12    1.97    2.05
   5  -8 -11  123.72    7.34
   5  -8 -11  136.30    7.18
   5  -8 -10   -0.89    3.26
   5  -8 -10    2.46    3.76
   5  -8 -10   -0.58    2.81
   5  -8 -10    3.98    2.55
   5  -8  -9 1246.29   64.45
   5  -8  -9 1285.88   63.76
   5   8  -9 1250.19   63.62
   5  -8  -9 1320.70   62.23
   5   8  -9 1316.30   62.39
   5  -8  -9 1253.48   62.75
   5  -8  -8   -0.96    3.62
   5   8  -8    4.54    2.92
   5  -8  -8    5.00    3.39
   5   8  -8    3.94    2.97
   5  -8  -8   11.50    3.20
   5  -8  -8   10.51    3.89
   5   8  -8    4.79    3.35
   5  -8  -8    7.92    3.27
   5   8  -8    7.70    3.55
   5  -8  -7  487.72   25.61
   5   8  -7  439.24   25.44
   5   8  -7  483.09   26.02
   5   8  -7  424.38   25.24
   5  -8  -7  496.06   27.36
   5   8  -7  490.64   27.55
   5  -8  -7  468.55   24.69
   5   8  -7  469.40   24.62
   5  -8  -7  461.42   25.79
   5   8  -6   12.29    3.88
   5   8  -6    6.00    2.36
   5  -8  -6   14.09    3.04
   5   8  -6   13.80    3.07
   5   8  -6   13.10    3.74
   5   8  -6   10.48    2.45
   5   8  -5 2386.39  111.55
   5   8  -5 2363.61  110.00
   5   8  -5 2262.81  111.30
   5   8  -5 2512.68  108.58
   5  -8  -5 2401.56  111.60
   5   8  -5 2221.74  108.93
   5  -8  -5 2455.04  109.11
   5   8  -5 2117.66  108.79
   5  -8  -4   89.12    7.88
   5   8  -4   81.44    8.11
   5   8  -4   88.76    7.54
   5   8  -4   92.91    6.41
   5  -8  -4   83.78    8.11
   5   8  -4   89.58    6.45
   5   8  -3  248.22   15.91
   5  -8  -3  272.42   15.53
   5   8  -3  236.58   14.98
   5  -8  -3  224.12   18.41
   5  -8  -3  259.14   16.01
   5   8  -3  219.36   20.12
   5  -8  -3  284.08   21.24
   5   8  -3  253.27   14.22
   5   8  -2    2.31    1.57
   5  -8  -2    2.80    2.42
   5   8  -2    1.76    1.82
   5   8  -2   -0.72    2.14
   5  -8  -2   -1.58    3.34
   5  -8  -2    0.66    2.42
  -5   8   2    1.03    2.47
   5   8  -2    1.70    3.86
   5  -8  -2   -1.59    3.12
   5   8  -1 1359.88   68.24
   5   8  -1 1357.68   75.35
   5  -8  -1 1449.11   75.04
  -5   8   1 1499.30   73.35
   5   8  -1 1381.80   69.06
   5  -8  -1 1473.57   68.09
   5  -8  -1 1509.89   76.61
   5   8   0   95.87    8.09
  -5   8   0  102.32   11.21
   5   8   0  114.00    8.85
   5  -8   0   96.35   12.25
   5  -8   0   96.06    9.75
  -5   8  -1 1026.75   55.78
   5   8   1  975.94   49.52
   5   8   1  971.92   55.58
   5   8   2   29.11    7.00
   5   8   2   32.62    4.92
  -5   8  -2   44.87    8.27
  -5   8  -3 1227.29   59.92
  -5   8  -3 1380.57   70.65
  -5  -8  -3 1254.07   68.58
   5  -8   3 1231.42   59.98
   5   8   3 1217.19   61.29
   5   8   3 1246.60   69.40
  -5   8  -4   17.62    6.49
  -5   8  -4   28.87    4.45
   5  -8   4   33.95    4.38
   5   8   4   25.71    7.39
  -5  -8  -4   32.72    7.96
  -5   8  -5  425.42   22.60
  -5   8  -5  375.49   22.19
  -5  -8  -5  390.09   22.01
   5   8   5  358.44   29.90
  -5  -8  -5  421.12   31.05
  -5  -8  -5  391.12   31.41
  -5   8  -5  406.41   32.80
  -5  -8  -6    6.89    6.11
  -5   8  -6   12.97    3.68
  -5  -8  -6   12.44    3.50
   5   8   6    4.67    4.97
   5  -8   6   17.52    6.35
  -5   8  -6    5.49    5.40
  -5  -8  -6    7.62    6.44
  -5   8  -6    8.84    3.64
  -5   8  -7  325.43   31.13
  -5  -8  -7  384.05   32.04
  -5   8  -7  411.21   23.04
  -5  -8  -7  402.51   22.54
   5   8   7  347.64   30.06
   5  -8   7  378.19   31.53
  -5   8  -7  436.87   23.36
  -5   8  -8    1.40    2.68
  -5  -8  -8    1.28    2.81
  -5  -8  -8    0.80    1.76
  -5   8  -8    4.78    3.09
  -5   8  -9  924.99   47.71
  -5  -8  -9  952.51   47.47
  -5   8  -9 1022.26   47.91
  -5   8 -10    0.90    1.77
  -5   8 -10    2.83    2.17
  -5   8 -11  718.73   34.35
   5  -9 -13   17.66    2.08
   5  -9 -12   40.42    3.99
   5  -9 -12   31.50    3.74
   5  -9 -11    3.13    2.51
   5  -9 -11   -0.69    2.53
   5  -9 -11   -0.96    2.61
   5  -9 -11    0.75    0.67
   5  -9 -10   54.97    6.24
   5  -9 -10   53.57    7.19
   5  -9 -10   60.13    7.06
   5   9  -9    3.43    2.92
   5   9  -9    4.93    3.24
   5  -9  -9    6.12    3.27
   5  -9  -9    2.95    3.70
   5  -9  -9    6.52    3.01
   5  -9  -8  814.34   40.02
   5   9  -8  780.39   40.14
   5   9  -8  709.83   40.02
   5  -9  -8  812.03   41.97
   5   9  -8  750.93   41.55
   5  -9  -8  807.02   40.07
   5   9  -8  738.20   38.91
   5  -9  -8  796.80   39.16
   5   9  -7    0.72    2.31
   5  -9  -7   -1.87    3.60
   5   9  -7    1.60    2.60
   5   9  -7   -1.45    2.67
   5  -9  -7    1.43    2.92
   5  -9  -7   -0.63    2.49
   5   9  -7    4.08    2.93
   5   9  -7    1.00    3.48
   5  -9  -7   -1.07    2.39
   5   9  -6  221.69   15.00
   5   9  -6  231.12   14.85
   5   9  -6  274.56   14.71
   5   9  -6  250.86   15.81
   5   9  -6  273.68   17.38
   5  -9  -5   62.34    6.78
   5   9  -5   51.63    6.19
   5   9  -5   53.57    6.80
   5   9  -5   59.48    7.06
   5   9  -5   58.12    5.17
   5   9  -5   45.56    4.93
   5   9  -4   17.48    3.47
   5   9  -4   19.30    4.12
   5  -9  -4   23.28    4.62
   5   9  -4   18.33    2.93
   5   9  -4   22.94    3.13
   5  -9  -4   14.08    3.88
   5   9  -3    6.53    2.68
   5   9  -3    1.59    2.40
   5  -9  -3    9.62    3.46
   5  -9  -3    5.45    3.46
   5   9  -3    8.55    2.30
   5  -9  -3   10.92    3.42
   5  -9  -2  553.11   29.01
   5   9  -2  561.95   30.23
   5  -9  -2  540.00   34.83
   5  -9  -2  550.46   29.66
   5   9  -2  522.98   34.71
   5  -9  -2  580.20   34.94
  -5   9   2  551.03   31.56
   5   9  -2  547.14   28.44
   5  -9  -1    1.65    2.21
   5   9  -1   -0.63    2.37
   5   9  -1    0.76    2.58
   5  -9  -1    1.80    3.21
   5  -9  -1    3.31    2.25
   5   9  -1    1.66    3.51
   5  -9  -1    1.53    4.07
  -5   9   1    1.26    2.48
   5  -9   0  310.77   21.12
   5   9   0  329.31   19.96
   5   9   0  330.25   19.32
   5   9   1   20.87    6.54
  -5   9  -1   33.67    7.34
   5   9   1   23.38    4.42
   5   9   1   26.31    3.97
   5   9   2  136.92   15.33
  -5   9  -2  130.36   14.78
   5   9   2  138.70   10.77
   5  -9   3    2.37    2.46
   5   9   3    1.57    2.59
  -5   9  -3   -0.59    2.12
   5   9   3    2.17    4.91
  -5   9  -3   -2.10    4.74
  -5   9  -4 1257.83   63.00
  -5   9  -4 1381.12   74.38
  -5  -9  -4 1197.37   71.93
   5  -9   4 1342.63   62.64
   5   9   4 1281.46   73.76
  -5   9  -5   22.57    4.26
  -5   9  -5    8.52    2.90
  -5  -9  -5   22.56    4.06
  -5   9  -5    7.53    5.35
  -5  -9  -5   16.25    6.20
  -5  -9  -5   13.62    6.06
   5   9   5   19.24    6.70
  -5  -9  -6   74.75   13.09
  -5   9  -6  113.14    8.55
  -5   9  -6   77.26   13.25
   5   9   6   82.43   12.98
  -5   9  -6   71.46    7.33
  -5  -9  -6   79.82    7.30
  -5   9  -7    0.69    2.52
  -5  -9  -7    1.25    2.75
  -5   9  -7   -0.74    3.06
   5   9   7    2.35    3.77
   5  -9   7    2.49    3.98
  -5   9  -8   94.25    7.91
  -5   9  -8   81.39    7.38
  -5  -9  -8   76.45    7.15
  -5   9  -9    1.12    2.19
  -5   9  -9    1.59    1.90
  -5   9  -9    1.45    2.38
  -5   9 -10   15.35    2.82
  -5   9 -11    6.96    1.61
   5 -10 -12    0.56    1.45
   5 -10 -12    0.31    1.68
   5 -10 -11  126.67   10.23
   5 -10 -11  135.20    9.29
   5 -10 -11  158.15    9.55
   5 -10 -10    9.23    3.16
   5 -10 -10   12.30    4.38
   5 -10 -10   20.29    3.68
   5  10  -9   83.95    8.88
   5 -10  -9   91.50    7.78
   5 -10  -9  101.09    9.95
   5 -10  -9  115.46    8.82
   5  10  -9   99.61    8.21
   5 -10  -8   40.94    6.68
   5 -10  -8   44.49    5.84
   5  10  -8   40.64    5.30
   5 -10  -8   37.41    5.07
   5  10  -8   33.06    6.16
   5  10  -7  242.28   15.94
   5  10  -7  295.99   18.93
   5  10  -7  268.74   16.97
   5 -10  -7  279.86   16.79
   5  10  -7  257.28   15.63
   5  10  -6    5.44    3.01
   5  10  -6    5.90    3.62
   5  10  -6    8.78    2.77
   5  10  -6   14.11    3.31
   5  10  -5   25.79    4.59
   5  10  -5   31.52    5.53
   5  10  -5   10.76    3.86
   5 -10  -5   18.81    4.85
   5  10  -4   28.62    4.68
   5  10  -4   30.78    5.40
   5 -10  -4   24.53    4.74
   5  10  -4   35.76    4.04
   5 -10  -4   28.90    5.08
   5  10  -3  250.89   15.79
   5 -10  -3  235.90   16.01
   5  10  -3  248.26   14.66
   5 -10  -3  283.64   16.04
   5  10  -3  258.53   16.75
   5 -10  -2   34.96    4.74
   5 -10  -2   47.08    7.88
   5 -10  -2   28.26    4.95
   5  10  -2   34.93    4.38
   5  10  -2   28.41    6.49
   5  10  -1  570.40   31.10
   5 -10  -1  600.50   29.65
   5  10  -1  541.19   29.92
   5 -10  -1  536.23   36.42
   5 -10  -1  589.24   30.37
   5  10  -1  477.73   34.01
  -5  10   1  600.69   34.10
   5  10  -1  549.35   29.39
   5  10   0   20.03    3.91
   5  10   0   20.28    4.31
   5 -10   0   24.71    4.11
   5  10   0   14.72    4.99
  -5  10   0   27.50    6.42
   5  10   1   25.20    6.83
   5  10   1   29.09    4.99
   5  10   1   28.03    4.10
  -5  10  -1   22.85    5.93
   5  10   2   13.28    5.34
   5  10   2    8.16    3.55
  -5  10  -2   13.82    5.72
   5  10   3   39.51    5.67
  -5  10  -3   37.14    9.11
   5 -10   3   44.44    5.16
   5  10   3   40.06    9.23
  -5  10  -4    2.88    2.22
  -5  10  -4    6.65    3.97
  -5  10  -4    3.42    2.95
   5  10   4   -2.48    4.86
   5 -10   4    6.34    2.73
  -5 -10  -4    2.25    4.41
  -5  10  -5  309.95   17.62
  -5  10  -5  259.88   16.39
   5  10   5  268.20   25.33
  -5 -10  -5  276.28   24.86
  -5  10  -6   26.09    4.38
  -5 -10  -6   25.99    8.08
  -5  10  -6   18.50    3.71
   5  10   6   24.97    7.27
  -5  10  -7  119.23    9.17
  -5  10  -7  122.46    9.74
  -5  10  -8   10.01    2.99
  -5  10  -8    3.32    2.19
  -5  10  -8    5.86    3.00
  -5  10  -9   25.62    3.66
  -5  10 -10    3.06    1.85
  -5  10 -11  172.66    9.09
   5 -11 -12   93.03    6.01
   5 -11 -11    3.57    2.16
   5 -11 -11    3.11    2.02
   5 -11 -11   -0.63    2.48
   5 -11 -10  253.55   14.58
   5 -11 -10  258.86   14.71
   5 -11 -10  216.69   16.04
   5 -11  -9   11.54    4.43
   5 -11  -9    4.01    3.58
   5 -11  -9    3.93    3.12
   5 -11  -9    5.46    3.08
   5  11  -9    8.05    3.66
   5 -11  -8 1498.88   73.62
   5  11  -8 1373.05   71.47
   5 -11  -8 1478.54   72.36
   5 -11  -8 1486.64   70.63
   5  11  -8 1551.64   74.25
   5 -11  -8 1482.72   71.25
   5 -11  -7    2.12    3.00
   5  11  -7    1.10    3.73
   5  11  -7    3.32    2.57
   5 -11  -6  822.25   43.01
   5  11  -6  848.60   43.93
   5  11  -6  773.92   42.13
   5  11  -5   23.49    3.42
   5 -11  -5   32.21    5.65
   5  11  -5   21.33    4.48
   5  11  -5   18.45    4.69
   5  11  -4   74.48    6.32
   5 -11  -4   75.05    7.77
   5  11  -4   82.11    8.73
   5  11  -4   69.55    7.41
   5  11  -3   32.09    5.17
   5  11  -3   39.48    6.12
   5  11  -3   39.35    4.60
   5  11  -3   39.69    4.72
   5 -11  -3   50.60    6.38
   5 -11  -2   86.76    7.48
   5 -11  -2   81.07    8.06
   5  11  -2   82.86    7.08
   5 -11  -2   66.99   10.11
   5 -11  -1  158.98   10.44
   5  11  -1  161.91   12.00
   5  11  -1  138.11   10.79
  -5  11   1  136.49   13.20
   5 -11  -1  135.41   10.65
   5  11  -1  137.38   10.11
   5 -11  -1  138.17   15.53
   5  11   0 1027.56   48.99
   5  11   0  943.84   47.63
  -5  11   0  958.72   52.84
   5  11   0  871.30   46.63
   5 -11   0  930.49   47.05
   5  11   1   -4.61    5.22
  -5  11  -1    1.82    4.37
   5  11   1   -0.87    2.95
   5  11   1    0.68    2.18
   5  11   2  946.11   54.79
   5  11   2  812.63   44.11
  -5  11  -2  868.18   51.85
   5  11   3   22.70    4.79
   5  11   3   12.70    6.14
   5 -11   3   12.84    3.44
  -5 -11  -4  594.94   41.45
   5 -11   4  664.55   32.15
   5  11   4  591.72   33.29
  -5  11  -4  603.85   31.15
   5  11   4  696.33   45.19
  -5  11  -4  590.96   32.60
  -5  11  -5    1.08    2.20
   5  11   5   -2.63    4.21
  -5 -11  -5    2.39    5.74
  -5  11  -5    2.94    3.00
  -5  11  -6  309.00   17.49
   5  11   6  305.02   27.22
  -5 -11  -6  271.85   25.46
  -5  11  -6  305.14   18.39
  -5  11  -7    3.57    2.86
  -5  11  -7   -1.09    2.51
  -5  11  -8  285.30   16.66
   5  11   8  305.17   16.69
  -5  11  -9   -1.24    2.15
  -5  11 -10  280.10   14.71
   5 -12 -11   65.47    6.61
   5 -12 -11   77.41    5.63
   5 -12 -10    6.33    2.65
   5 -12 -10    9.06    2.63
   5 -12 -10    3.45    3.32
   5 -12 -10    3.19    3.79
   5 -12  -9  396.41   23.41
   5 -12  -9  377.70   22.36
   5 -12  -9  384.33   20.84
   5 -12  -9  368.13   20.83
   5  12  -9  382.16   22.99
   5  12  -8    2.37    2.68
   5 -12  -8   -3.89    4.12
   5 -12  -8    3.24    3.55
   5  12  -8    2.17    3.47
   5 -12  -8   -1.12    2.54
   5 -12  -8   -1.90    2.73
   5 -12  -7   69.56    7.15
   5  12  -7   54.90    6.79
   5 -12  -6   -1.86    3.94
   5  12  -6    0.89    2.93
   5  12  -6    2.19    3.03
   5  12  -5  731.31   39.93
   5 -12  -5  771.06   40.23
   5  12  -5  770.68   41.61
   5  12  -5  755.01   37.87
   5  12  -4    2.54    2.95
   5  12  -4    1.05    3.86
   5 -12  -4    1.60    3.07
   5  12  -4    3.98    2.23
   5  12  -3   94.08    9.31
   5  12  -3  131.53    9.14
   5  12  -3  121.61    9.07
   5 -12  -3  120.98    9.65
   5  12  -3  117.74   10.88
   5 -12  -2   14.17    3.77
   5 -12  -2   16.52    4.00
   5  12  -2   17.50    4.09
   5  12  -2   16.80    3.80
   5 -12  -2   13.85    4.85
   5 -12  -1  572.38   30.39
   5  12  -1  611.96   32.91
   5  12  -1  580.65   31.50
   5  12  -1  567.90   30.75
   5 -12  -1  529.79   37.71
   5 -12  -1  588.38   31.23
   5  12   0   37.17    5.36
   5  12   0   29.05    5.49
   5  12   1  215.66   15.27
   5  12   1  214.31   14.73
   5  12   1  211.45   14.15
   5  12   2   36.07    5.54
   5  12   2   10.44    5.62
   5  12   3  474.00   36.84
   5  12   3  482.16   27.73
  -5 -12  -4    2.40    4.70
   5 -12   4    5.31    2.59
   5  12   4    5.20    3.10
  -5  12  -4    2.95    2.12
   5  12   4    8.25    4.93
  -5  12  -4    3.75    3.01
  -5  12  -5   14.37    3.31
  -5 -12  -5    9.65    6.42
   5  12   5    8.10    5.32
  -5  12  -5    9.82    3.66
  -5 -12  -6    4.67    4.58
  -5  12  -6    1.09    2.34
   5  12   6    0.71    2.55
  -5  12  -6   -0.72    2.86
  -5  12  -7   68.44    6.15
   5  12   7   78.43    6.70
  -5  12  -7   55.92    6.40
  -5  12  -8    6.90    2.60
  -5  12  -9   51.43    4.61
  -5  12 -10   -1.47    1.39
   5 -13 -11   11.70    2.25
   5 -13 -10  461.18   24.12
   5 -13 -10  471.38   24.01
   5 -13 -10  488.56   25.95
   5 -13 -10  488.62   26.49
   5 -13  -9   13.90    4.82
   5 -13  -9    1.45    3.43
   5 -13  -9    4.84    2.46
   5 -13  -9    5.43    2.72
   5  13  -9    3.46    3.18
   5  13  -8  232.18   15.01
   5 -13  -8  231.34   14.88
   5 -13  -8  202.54   13.00
   5  13  -8  205.28   15.82
   5 -13  -8  208.61   13.38
   5 -13  -7    2.85    3.95
   5 -13  -7   -2.62    3.01
   5 -13  -7   -2.42    3.59
   5  13  -7   -0.90    2.96
   5  13  -7    4.97    3.47
   5  13  -6  855.77   45.43
   5 -13  -6  834.35   44.13
   5  13  -6  817.04   43.91
   5  13  -5  191.46   14.10
   5 -13  -5  185.48   13.92
   5  13  -5  187.18   15.15
   5  13  -5  189.80   12.19
   5  13  -4  406.30   25.63
   5 -13  -4  471.09   25.88
   5  13  -4  466.77   27.61
   5  13  -4  448.13   24.34
   5  13  -3   44.48    7.03
   5 -13  -3   52.57    6.38
   5  13  -3   49.50    5.52
   5  13  -2  647.90   35.52
   5  13  -2  661.34   34.60
   5 -13  -2  668.19   34.61
   5  13  -1   19.19    4.29
   5 -13  -1   20.26    6.32
   5 -13  -1   11.19    3.41
   5  13  -1   17.87    4.03
   5 -13  -1   17.67    3.68
   5  13   0   49.31    6.41
   5  13   0   42.82    6.99
   5  13   1   31.02    5.43
   5  13   1   31.51    5.17
   5  13   1   42.38    5.45
   5  13   2 1516.61   74.92
   5  13   2 1581.10   76.50
   5  13   2 1466.22   86.93
   5  13   3    2.85    3.95
   5  13   3    0.83    3.03
   5  13   3    0.95    3.14
   5  13   4   36.84    5.84
  -5  13  -4   51.74    5.02
   5  13   4   34.07    9.61
  -5 -13  -4   53.49   10.51
  -5  13  -4   59.41    6.44
   5  13   4   44.66    6.12
  -5  13  -5   26.61    3.92
   5  13   5   29.94    8.52
  -5  13  -5   31.21    5.20
   5  13   5   23.45    4.71
  -5 -13  -5   23.98    7.53
  -5  13  -6  976.00   47.87
   5  13   6  990.10   49.06
  -5  13  -6  971.51   49.14
  -5  13  -7    6.79    2.40
   5  13   7    3.83    2.53
  -5  13  -8   99.99    7.19
  -5  13  -9   15.51    2.62
  -5  13  -9   12.33    2.49
  -5  13 -10  553.60   27.39
  -5  13 -10  588.31   27.16
   5 -14 -11  234.11   12.13
   5 -14 -10    0.34    1.84
   5 -14 -10    1.13    2.57
   5 -14 -10    0.66    2.52
   5 -14  -9  137.68   10.74
   5 -14  -9  142.07   10.35
   5 -14  -9  116.09    8.34
   5 -14  -9  124.34    8.41
   5  14  -9  126.15   10.54
   5 -14  -8    2.93    2.62
   5 -14  -8    0.53    2.34
   5 -14  -8    1.48    3.89
   5  14  -8   -1.05    3.57
   5  14  -8    0.79    2.74
   5 -14  -7 1400.88   69.65
   5 -14  -7 1474.96   68.54
   5 -14  -7 1376.15   70.33
   5  14  -7 1365.32   70.64
   5  14  -7 1457.53   70.55
   5 -14  -6    1.82    3.85
   5  14  -6    4.73    3.79
   5  14  -6    8.10    4.72
   5 -14  -5  168.76   12.73
   5  14  -5  155.79   13.70
   5  14  -5  154.07   12.54
   5  14  -4   38.85    5.16
   5 -14  -4   41.86    6.12
   5  14  -4   51.36    6.84
   5  14  -4   46.91    7.35
   5  14  -3  512.81   28.37
   5 -14  -3  533.79   29.08
   5  14  -3  552.21   31.62
   5  14  -2    7.30    3.32
   5  14  -2    3.50    2.75
   5 -14  -2    8.31    3.51
   5  14  -2    6.19    3.48
   5 -14  -1  238.74   14.90
   5  14  -1  247.36   16.39
   5 -14  -1  211.59   20.53
   5  14  -1  248.57   15.81
   5  14   0    1.74    3.12
   5  14   0    4.18    3.92
   5 -14   0   -2.21    3.96
   5  14   1 2103.44   99.55
   5  14   1 2038.28   99.59
   5  14   1 2108.55  101.42
   5  14   2   -0.83    3.18
   5  14   2   -2.01    3.87
   5  14   3  763.14   39.27
   5  14   3  718.32   38.15
   5  14   4    4.36    3.35
  -5 -14  -4    2.42    4.75
  -5  14  -4    2.37    2.08
  -5  14  -4    0.78    2.92
   5  14   4    4.13    2.95
   5  14   4   -2.88    6.09
  -5  14  -5  357.68   18.90
   5  14   5  315.80   20.01
  -5  14  -5  345.93   20.43
  -5  14  -6   18.37    3.34
  -5  14  -6   13.54    3.77
   5  14   6   24.42    4.16
   5  14   7  211.30   12.90
  -5  14  -7  218.80   12.64
  -5  14  -8    2.51    1.85
  -5  14  -8    6.24    2.34
  -5  14  -9  179.25    9.83
   5 -15 -10   13.83    3.34
   5 -15 -10   12.12    2.14
   5 -15  -9   -0.36    1.72
   5 -15  -9    0.60    2.85
   5  15  -9   -1.48    2.58
   5  15  -8   -4.49    3.06
   5 -15  -8    4.88    3.38
   5 -15  -8   -1.37    3.64
   5  15  -8    3.99    3.48
   5 -15  -8   11.22    2.91
   5 -15  -8    3.15    2.22
   5 -15  -7   19.31    4.83
   5  15  -7   30.33    6.09
   5  15  -7   10.65    4.11
   5  15  -7   22.70    4.43
   5 -15  -7   15.52    4.81
   5 -15  -7   20.89    3.70
   5 -15  -6   34.07    5.70
   5  15  -6   33.28    5.99
   5  15  -6   32.13    6.20
   5 -15  -5   45.31    6.76
   5  15  -5   49.46    6.92
   5  15  -5   45.83    7.53
   5 -15  -4  339.78   20.87
   5  15  -4  354.64   23.39
   5  15  -4  340.47   20.00
   5  15  -4  354.93   21.93
   5 -15  -3    9.01    3.60
   5  15  -3   16.39    3.69
   5  15  -3   11.85    5.23
   5 -15  -2  481.96   26.00
   5  15  -2  470.63   26.26
   5  15  -2  461.45   27.32
   5 -15  -1   34.82    4.87
   5  15  -1   47.53    5.91
   5  15  -1   31.63    5.70
   5  15  -1   32.37    6.40
   5  15   0  133.09   11.41
   5  15   0  107.11    9.81
   5  15   1   41.05    6.70
   5  15   1   38.78    5.44
   5  15   1   27.04    4.75
   5  15   2    1.68    3.15
   5  15   2   -1.02    3.76
  -5 -15  -3   33.77    8.75
   5  15   3   29.40    5.10
   5 -15   3   30.98    4.82
   5  15   3   37.75    6.17
   5  15   4   32.17    5.37
   5  15   4   36.95    5.48
  -5  15  -5   30.46    4.77
   5  15   5   32.25    4.96
  -5  15  -5   24.04    3.53
  -5  15  -6  184.50   11.44
   5  15   6  182.48   12.29
  -5  15  -7    7.15    2.13
   5  15   7    5.41    2.23
  -5  15  -8  133.93    8.94
  -5  15  -8  144.97    8.35
  -5  15  -9    8.84    1.83
   5 -16 -10    0.20    0.50
   5 -16  -9  170.19    5.92
   5 -16  -9  186.37    8.39
   5 -16  -8   13.15    2.69
   5 -16  -8   14.26    3.85
   5  16  -8   21.06    5.03
   5 -16  -8   19.88    4.32
   5  16  -8   22.13    4.10
   5  16  -7  959.79   25.43
   5 -16  -7  914.55   24.35
   5 -16  -7  962.18   23.51
   5 -16  -7  941.86   19.99
   5 -16  -6   10.71    4.04
   5  16  -6   11.16    4.43
   5  16  -6    8.89    4.47
   5  16  -5  219.28   16.64
   5 -16  -5  211.37   14.66
   5  16  -5  206.30   15.30
   5  16  -4    9.49    3.06
   5 -16  -4   11.01    3.81
   5  16  -4   12.58    4.61
   5  16  -4   12.15    4.98
   5  16  -3  648.62   33.28
   5  16  -3  682.14   36.80
   5 -16  -3  571.59   32.69
   5  16  -3  619.10   34.50
   5  16  -2    7.68    3.38
   5 -16  -2    6.01    3.43
   5  16  -2    6.55    4.05
   5  16  -1  112.14    9.91
   5  16  -1  124.36   11.92
   5  16  -1  134.12   11.09
   5  16   0    3.65    3.59
   5  16   0    7.71    4.50
   5 -16   0    8.47    4.80
   5  16   1 1585.41   77.48
   5  16   1 1488.76   75.46
   5  16   1 1570.14   75.36
   5  16   2    5.11    4.18
   5  16   2    9.16    3.60
   5  16   3  868.68   44.62
   5  16   3  884.13   45.56
   5 -16   3  843.01   43.19
  -5  16  -4   34.01    5.38
   5  16   4   39.58    5.59
   5  16   4   23.80    4.66
  -5  16  -5  511.70   27.00
   5  16   5  491.87   26.64
  -5  16  -5  481.02   24.89
  -5  16  -6   14.61    2.67
   5  16   6   13.30    3.03
  -5  16  -6   18.55    3.83
  -5  16  -7  233.81   12.95
  -5  16  -7  195.56   11.37
  -5  16  -8    8.98    2.16
  -5  16  -9   69.52    4.48
   5  17  -9   -0.51    1.09
   5 -17  -9    2.22    2.41
   5 -17  -9   -0.22    0.57
   5 -17  -8  194.92   11.71
   5  17  -8  207.06   12.83
   5 -17  -8  215.07   11.46
   5  17  -7   15.14    4.19
   5 -17  -7    7.85    2.09
   5 -17  -7    6.93    2.40
   5 -17  -7   12.39    3.68
   5  17  -7   10.83    4.32
   5  17  -7    0.76    1.38
   5 -17  -7   10.80    3.74
   5 -17  -6  565.90   29.64
   5 -17  -6  587.70   31.52
   5  17  -6  651.54   33.88
   5  17  -6  627.18   32.69
   5 -17  -6  534.01   30.66
   5 -17  -5    3.83    2.94
   5  17  -5    5.65    4.46
   5  17  -5   -1.16    4.04
   5 -17  -4   31.22    5.06
   5  17  -4   31.18    6.68
   5  17  -4   35.51    4.73
   5 -17  -3   30.62    4.57
   5  17  -3   21.89    5.46
   5  17  -3   24.03    6.62
   5  17  -3   24.07    4.48
   5 -17  -2   29.89    4.55
   5  17  -2   30.08    5.61
   5  17  -2   23.30    4.44
   5  17  -1   -0.93    4.21
   5  17  -1    4.57    3.88
   5  17  -1    3.20    3.33
   5  17   0   57.95    7.40
   5  17   0   80.52    9.11
   5  17   1    0.76    2.65
   5  17   1   -1.06    3.60
   5  17   1    0.82    2.99
   5  17   2 1328.79   65.53
   5  17   2 1319.15   66.87
  -5  17  -3   10.79    3.56
   5  17   3    3.89    3.00
   5  17   3    4.49    3.31
   5 -17   3    6.86    2.91
   5  17   4   42.45    5.60
  -5  17  -4   39.27    5.50
   5  17   4   55.51    6.01
   5  17   5    0.59    2.43
  -5  17  -5    1.23    2.61
  -5  17  -6  248.62   14.59
  -5  17  -7    1.15    1.82
  -5  17  -7    2.48    1.69
  -5  17  -8   12.14    2.09
   5 -18  -8   27.41    4.18
   5  18  -8   18.89    4.08
   5 -18  -8   28.61    4.17
   5 -18  -7   72.12    6.18
   5  18  -7   73.63    6.56
   5  18  -7   79.97    7.82
   5 -18  -7   79.61    5.87
   5 -18  -6   12.60    2.64
   5 -18  -6   12.92    3.77
   5 -18  -6   10.83    3.48
   5  18  -6   10.95    4.54
   5  18  -6   15.11    4.23
   5  18  -6   12.25    4.10
   5  18  -5  250.30   16.53
   5  18  -5  249.43   17.46
   5 -18  -5  216.67   14.97
   5  18  -4   23.09    5.80
   5 -18  -4   25.31    4.52
   5  18  -3   11.32    3.64
   5  18  -3    0.93    3.42
   5  18  -3   12.88    4.79
   5 -18  -3   10.34    3.56
   5  18  -2   -0.76    2.79
   5  18  -2    3.69    3.84
   5  18  -1  280.43   18.13
   5  18  -1  292.44   19.07
   5  18  -1  317.71   20.66
   5  18   0   96.03    8.93
   5  18   0   94.06    9.34
   5  18   0  113.19    9.46
   5  18   0  111.35   10.72
   5  18   1   38.34    5.28
   5  18   1   44.16    6.97
   5  18   2    5.42    3.04
   5  18   2    4.77    3.75
   5  18   3   45.70    5.77
  -5  18  -3   47.50    5.77
  -5  18  -3   49.06    4.96
   5  18   3   41.55    5.87
   5  18   4   13.35    3.43
  -5  18  -4   10.60    3.21
  -5  18  -4   15.43    3.27
  -5  18  -5   24.41    3.91
  -5  18  -5   26.38    3.64
  -5  18  -6    3.93    2.02
  -5  18  -6    2.18    1.91
  -5  18  -7  140.42    8.37
   5 -19  -8  805.77   39.80
   5  19  -8  862.86   41.40
   5  19  -7   -0.77    2.83
   5 -19  -7    2.66    2.04
   5 -19  -7    1.08    2.32
   5 -19  -6  568.50   29.97
   5  19  -6  606.86   31.86
   5  19  -6  657.99   33.12
   5 -19  -6  554.11   30.36
   5  19  -6  583.64   31.94
   5 -19  -5   15.96    3.81
   5 -19  -5   27.19    4.44
   5  19  -5   26.77    5.06
   5  19  -5   21.94    5.08
   5  19  -4  831.41   42.88
   5 -19  -4  751.54   39.21
   5  19  -3   35.89    4.96
   5  19  -3   31.06    5.79
   5  19  -3   30.02    6.65
   5  19  -2  350.15   20.62
   5  19  -2  351.74   21.74
   5  19  -1    2.26    3.08
   5  19  -1    7.81    3.74
   5  19  -1    1.08    3.95
   5  19   0  548.46   30.50
   5  19   0  571.30   30.58
   5  19   0  569.83   32.45
   5  19   1   26.54    4.86
   5  19   1   38.00    6.20
   5  19   2  494.07   28.27
  -5  19  -3   21.17    3.90
  -5  19  -3   22.49    3.35
   5  19   3   20.80    4.27
  -5  19  -4  482.48   25.65
  -5  19  -4  487.35   24.77
  -5  19  -5   13.71    2.81
  -5  19  -5   23.77    3.00
   5  19   6  412.12   23.14
  -5  19  -6  494.41   22.85
  -5  19  -7    4.20    1.27
   5  20  -8   15.57    2.65
   5  20  -7  316.92   17.36
   5 -20  -7  266.14   14.92
   5 -20  -6    6.35    2.57
   5  20  -6   -0.65    1.17
   5  20  -6    3.91    3.43
   5 -20  -6    4.11    2.21
   5  20  -6    4.67    3.11
   5 -20  -5   23.24    3.79
   5 -20  -5   37.49    4.26
   5  20  -5   40.94    6.17
   5  20  -5   29.24    4.97
   5  20  -5   20.13    4.72
   5  20  -4    0.98    3.34
   5  20  -3   61.90    7.27
   5  20  -3   69.63    8.19
   5  20  -2    0.66    2.73
   5  20  -2   -0.82    3.33
   5  20  -1   17.63    4.29
   5  20  -1   11.05    3.13
   5  20  -1   11.02    4.64
   5  20   0   12.19    3.43
   5  20   0   11.25    3.42
   5  20   0   13.38    4.49
   5  20   1  391.91   22.93
   5  20   1  425.34   24.45
   5  20   2   -0.79    2.98
   5  20   3  317.19   18.57
  -5  20  -3  320.29   18.04
   5  20   3  328.88   18.79
   5  20   4    3.17    2.08
  -5  20  -4    5.52    1.96
  -5  20  -4    3.08    1.61
   5  20   5   14.12    2.61
  -5  20  -5   19.55    2.72
  -5  20  -5   18.66    2.41
   5  21  -7   29.03    3.76
   5 -21  -6  266.36   14.05
   5 -21  -5   26.57    3.32
   5  21  -5   23.40    4.60
   5  21  -5   25.45    4.54
   5  21  -5   23.90    4.29
   5 -21  -4  575.39   29.97
   5  21  -4  574.57   31.86
   5  21  -4  667.23   32.95
   5  21  -4  648.43   33.46
   5  21  -3    0.91    3.79
   5  21  -3    0.72    2.99
   5  21  -3    2.26    3.07
   5  21  -2  278.44   16.88
   5  21  -2  254.45   15.64
   5  21  -1   51.55    5.61
   5  21  -1   48.46    7.17
   5  21  -1   55.61    5.99
   5  21   0  967.26   48.38
   5  21   0  976.53   50.09
   5  21   0  981.94   48.05
   5  21   1   10.22    3.91
   5  21   2   89.65    7.63
  -5  21  -2   62.47    5.91
   5  21   3   27.32    3.83
  -5  21  -3   34.76    3.96
   5  21   3   38.01    4.43
   5  21   4  586.36   29.46
   5  22  -5  679.78   33.40
   5  22  -5  613.22   32.60
   5  22  -4    0.63    2.35
   5  22  -4   -1.42    2.83
   5  22  -3  133.81    9.87
   5  22  -3  137.93   10.76
   5  22  -2   11.84    3.22
   5  22  -1  457.51   25.21
   5  22  -1  512.82   25.69
   5  22  -1  484.75   27.06
   5  22   0   10.86    2.82
   5  22   0   12.36    3.76
  -5  22  -1  516.30   26.10
   5  22   1  507.20   27.63
  -5  22  -2    9.04    2.21
   5  22   2   13.05    3.08
   5  23  -5   10.13    2.48
   5  23  -4    3.10    2.07
   5  23  -4    1.88    1.95
   5  23  -3    1.22    2.23
   5  23  -3   -0.47    2.00
   5  23  -2    0.50    1.14
   5  23  -2   21.10    3.11
   5  23  -1    2.18    1.59
   5  23  -1   -0.62    2.53
   5  23   0    0.58    2.35
   5  23   1    2.93    2.07
   5  24  -3  296.72   16.15
   5  24  -1  220.10   12.90
   5  24   0   19.76    2.93
   6   0 -13   17.21    3.55
   6   0 -13   15.98    2.56
   6   0 -12 1193.80   57.00
   6   0 -12 1186.05   58.48
   6   0 -11    8.06    3.11
   6   0 -11   17.71    4.92
   6   0 -10  482.05   24.99
   6   0 -10  451.24   26.89
   6   0 -10  412.53   37.28
   6   0  -9   26.78    5.44
   6   0  -9   27.46    9.22
   6   0  -8 2067.37   95.72
   6   0  -8 1992.94   96.20
   6   0  -8 1945.13   94.63
   6   0  -8 2051.42  109.75
   6   0  -7    1.64    2.18
   6   0  -7    2.15    2.75
   6   0  -7    0.91    2.73
   6   0  -7    0.67    2.83
   6   0  -6  477.11   28.76
   6   0  -6  538.49   27.28
   6   0  -6  496.83   27.65
   6   0  -5   13.75    3.01
   6   0  -5    8.94    3.46
   6   0  -5   10.96    3.18
   6   0  -5    5.81    2.09
   6   0  -4  925.12   46.55
   6   0  -4  993.87   58.61
   6   0  -4  954.77   48.92
   6   0  -4  972.18   46.69
   6   0  -3    4.64    2.31
   6   0  -3    6.74    6.23
   6   0  -2 2089.33   96.46
   6   0  -2 1911.65  107.16
   6   0  -1    1.56    2.04
   6   0   0  156.87   15.02
   6   0   1   66.59   10.07
  -6   0  -1   63.96    6.90
   6   0   1   68.21    6.23
  -6   0  -2 3237.12  152.93
   6   0   2 3525.96  164.99
   6   0   3    2.12    4.15
  -6   0  -3    0.82    1.74
   6   0   3   -0.82    2.63
   6   0   4 1360.01   76.91
  -6   0  -4 1396.41   66.19
   6   0   5    2.33    4.19
   6   0   5    4.46    4.73
  -6   0  -5   10.44    3.00
  -6   0  -6 3231.83  169.51
   6   0   6 3521.95  173.61
  -6   0  -6 3517.63  160.50
  -6   0  -7    3.34    5.97
  -6   0  -7    3.42    3.69
   6   0   7    2.49    4.46
  -6   0  -7    1.95    3.50
  -6   0  -7    0.63    2.56
  -6   0  -8   70.15    7.56
  -6   0  -9    3.63    3.08
  -6   0 -10  384.83   21.32
   6  -1 -13   98.92    7.62
   6   1 -13  114.50    7.03
   6  -1 -13   99.26    6.78
   6   1 -12   -0.91    2.28
   6  -1 -12    2.23    2.42
   6   1 -12    0.67    3.46
   6  -1 -12    2.62    3.10
   6   1 -11   16.82    3.58
   6  -1 -11   22.73    4.85
   6  -1 -11   19.11    3.75
   6  -1 -10   17.54    4.70
   6   1 -10   16.07    3.66
   6  -1 -10   15.62    4.99
   6  -1 -10   18.64    8.28
   6  -1  -9   12.09    8.38
   6  -1  -9    9.77    4.33
   6  -1  -9    3.51    2.71
   6   1  -9   10.36    4.04
   6   1  -9    7.14    2.86
   6  -1  -8   13.97    7.51
   6  -1  -8   34.19    5.34
   6  -1  -8   26.37    4.34
   6   1  -8   30.75    4.04
   6   1  -8   19.13    4.49
   6  -1  -7  738.40   37.66
   6  -1  -7  708.41   38.33
   6  -1  -7  777.97   36.61
   6   1  -7  735.03   39.94
   6  -1  -7  691.18   39.22
   6   1  -7  777.22   38.44
   6  -1  -7  759.34   38.42
   6   1  -6   -1.78    2.17
   6  -1  -6    6.21    2.58
   6  -1  -6    4.53    2.70
   6   1  -6    0.69    2.06
   6  -1  -6   -1.03    2.11
   6  -1  -6   -2.78    3.32
   6   1  -6    0.93    2.98
   6   1  -6   -0.34    1.60
   6  -1  -6    1.32    1.52
   6   1  -5    9.02    2.61
   6  -1  -5   11.88    3.91
   6   1  -5   12.30    3.83
   6   1  -5   15.72    3.99
   6   1  -5   13.91    3.36
   6  -1  -5   21.25    4.05
   6  -1  -5   11.01    2.75
   6  -1  -4    2.55    1.78
   6  -1  -4    0.67    2.14
   6   1  -4    0.82    2.45
   6  -1  -4   -0.88    2.98
   6  -1  -4   -2.34    5.62
   6   1  -4    0.49    1.97
   6  -1  -4    0.54    2.01
   6  -1  -3  502.58   35.18
   6  -1  -3  492.60   25.40
   6   1  -3  466.65   25.12
   6  -1  -2   23.91    7.21
   6   1  -2   16.34    3.03
   6  -1  -2   14.06    3.00
   6  -1  -1   52.21    5.13
   6   1  -1   38.83    4.61
   6  -1   0   -1.55    2.48
   6   1   0   -1.66    3.75
  -6  -1   0    0.79    1.90
   6  -1   0   -1.09    2.17
   6  -1   1   40.73    8.08
   6   1   1   41.83    7.98
   6  -1   1   62.01   10.28
   6  -1   1   49.24    5.28
  -6  -1  -1   44.23    6.25
   6   1   2   11.03    3.79
  -6  -1  -2    2.23    3.11
   6  -1   2   14.77    5.54
   6   1   2    3.93    4.99
   6  -1   2    8.37    6.05
   6  -1   3   21.98    6.86
   6   1   3   25.99    4.90
  -6   1  -3   18.91    3.07
  -6  -1  -3   22.48    3.02
  -6   1  -4    0.51    2.32
  -6  -1  -4    0.46    1.86
   6   1   4   -2.23    4.72
   6  -1   4   -4.41    4.67
  -6   1  -5  325.90   18.47
  -6  -1  -5  329.64   18.20
  -6   1  -5  266.70   24.56
   6  -1   5  340.06   27.55
   6   1   5  342.37   27.73
  -6   1  -6    4.20    4.76
  -6  -1  -6    1.97    3.16
   6  -1   6    2.43    5.16
   6   1   6    7.40    5.23
   6  -1   6   -2.30    4.11
  -6   1  -6    1.86    2.81
  -6  -1  -6    4.69    2.48
  -6  -1  -7   39.64   10.81
  -6   1  -7   56.06    6.04
  -6   1  -7   58.78   10.12
  -6  -1  -7   35.58    7.68
  -6  -1  -7   49.94    6.81
   6  -1   7   54.49   10.54
   6   1   7   54.96   11.36
  -6  -1  -8    1.63    3.52
  -6  -1  -9    7.18    3.46
  -6  -1 -10    1.72    2.60
   6  -2 -13   -0.94    1.84
   6   2 -13    5.23    2.25
   6  -2 -13    3.72    2.69
   6  -2 -12  386.59   21.85
   6  -2 -12  384.00   20.54
   6   2 -12  395.23   20.76
   6  -2 -11   -0.52    2.77
   6  -2 -11    2.22    3.25
   6   2 -11    1.64    2.66
   6  -2 -10  180.39   13.84
   6   2 -10  173.50   13.18
   6  -2 -10  186.66   13.20
   6   2 -10  187.68   12.06
   6  -2  -9    8.90    6.30
   6   2  -9    3.04    7.71
   6  -2  -9    8.80    3.62
   6  -2  -9   12.29    3.68
   6   2  -9   12.84    3.88
   6   2  -9    8.28    2.97
   6  -2  -9   12.46    4.43
   6   2  -8  637.14   31.44
   6   2  -8  640.59   33.17
   6  -2  -8  605.56   33.36
   6  -2  -8  615.05   32.48
   6  -2  -8  701.31   45.88
   6   2  -8  568.22   43.54
   6   2  -8  557.68   33.37
   6  -2  -8  628.77   31.34
   6  -2  -7    9.16    3.23
   6  -2  -7   15.73    3.76
   6   2  -7   10.85    3.48
   6   2  -7    9.59    3.73
   6  -2  -7   10.98    3.37
   6   2  -7   18.90    2.98
   6  -2  -7   16.26    2.83
   6   2  -7   15.16    3.59
   6  -2  -7   15.18    3.55
   6   2  -6  436.81   25.76
   6  -2  -6  451.63   25.90
   6  -2  -6  435.31   24.88
   6   2  -6  394.77   23.69
   6  -2  -6  419.68   21.92
   6   2  -6  441.43   22.19
   6   2  -6  457.53   23.81
   6  -2  -6  480.12   24.49
   6   2  -5    3.59    2.18
   6   2  -5    5.14    3.15
   6  -2  -5    0.93    2.79
   6   2  -5    7.93    3.67
   6   2  -5   10.84    2.94
   6  -2  -5    3.67    2.63
   6  -2  -5    3.37    2.07
   6  -2  -4  830.11   42.58
   6   2  -4  832.29   44.89
   6   2  -4  844.28   44.25
   6  -2  -4  899.84   45.31
   6  -2  -4  879.70   53.80
   6  -2  -4  807.99   43.32
   6   2  -4  898.15   42.58
   6  -2  -4  893.08   42.51
   6  -2  -3   -2.20    4.66
   6  -2  -3    2.72    2.18
   6  -2  -2  188.54   19.19
   6  -2  -2  196.17   12.28
   6  -2  -1   -1.33    3.02
   6   2   0  326.54   23.46
   6  -2   0  291.69   21.62
   6  -2   0  272.98   16.46
   6  -2   1   -1.65    3.74
   6   2   1    1.89    4.00
   6  -2   1   -2.06    4.95
   6  -2   1   -1.72    2.64
  -6  -2  -1    1.06    2.69
   6   2   2  905.78   46.29
   6  -2   2  889.97   53.69
   6  -2   2  910.67   52.29
   6  -2   2  888.83   44.34
  -6  -2  -2  863.94   48.20
   6  -2   3    5.89    4.98
   6  -2   3   12.95    5.99
  -6  -2  -3    6.97    1.94
  -6  -2  -3   14.16    4.95
   6   2   3    8.55    3.37
  -6   2  -4 1488.19   72.73
  -6  -2  -4 1556.13   72.17
   6  -2   4 1484.61   83.74
   6  -2   4 1515.50   83.14
   6   2   4 1626.71   84.98
  -6   2  -5    6.34    5.61
   6   2   5    2.39    3.84
   6  -2   5   -2.33    5.60
  -6   2  -5    8.99    2.85
  -6  -2  -5    5.62    2.39
  -6   2  -6  711.77   35.21
   6  -2   6  648.38   44.53
   6  -2   6  655.08   45.01
   6   2   6  655.06   45.22
  -6   2  -6  683.34   44.01
  -6  -2  -6  636.81   41.91
  -6  -2  -7   -0.83    3.82
  -6   2  -7    0.65    2.69
  -6   2  -7   -3.31    4.59
  -6  -2  -7   -3.24    6.86
   6  -2   7   -2.46    4.40
   6   2   7   -2.50    5.28
  -6   2  -7   -2.09    4.74
  -6  -2  -8  172.36   13.12
  -6   2  -8  205.95   12.78
  -6  -2  -9   -2.11    2.75
  -6   2 -10   65.30    6.42
  -6  -2 -10   72.73    6.48
   6  -3 -13  708.18   34.20
   6   3 -13  700.94   34.33
   6  -3 -13  725.43   35.22
   6  -3 -12   34.44    4.12
   6   3 -12   29.85    4.13
   6  -3 -12   32.67    4.70
   6   3 -11  130.85    9.57
   6   3 -11  122.90   10.63
   6  -3 -11  154.05   10.85
   6  -3 -10    2.33    3.57
   6   3 -10    3.48    3.04
   6   3 -10    2.50    3.40
   6  -3 -10   -2.67    3.84
   6   3 -10    9.08    4.24
   6  -3  -9   46.02    6.99
   6  -3  -9   66.99    6.89
   6   3  -9   76.98    8.22
   6  -3  -9   58.89    5.84
   6   3  -9   66.34    7.26
   6  -3  -9   53.48    6.77
   6   3  -9   60.05    5.96
   6  -3  -8    4.90    3.17
   6   3  -8   -0.82    3.21
   6  -3  -8    1.61    3.75
   6   3  -8    3.71    2.78
   6  -3  -8    5.76    2.52
   6   3  -8    6.70    2.92
   6   3  -8    1.49    2.15
   6   3  -7  728.97   37.00
   6   3  -7  748.86   35.50
   6  -3  -7  736.11   37.87
   6   3  -7  681.35   37.14
   6  -3  -7  691.07   37.14
   6  -3  -7  703.33   36.73
   6   3  -7  659.47   38.46
   6  -3  -7  739.25   35.31
   6  -3  -6   12.71    2.29
   6   3  -6   14.61    2.49
   6   3  -6   14.36    3.40
   6  -3  -6    9.04    3.81
   6   3  -6   11.96    3.59
   6  -3  -6   13.08    3.75
   6  -3  -6   13.85    3.83
   6  -3  -6   19.85    3.39
   6   3  -5  132.94    9.25
   6   3  -5  118.69   10.74
   6  -3  -5  130.64   11.26
   6   3  -5  160.51   11.60
   6  -3  -5  129.83   10.44
   6  -3  -5  133.37    9.65
   6  -3  -5  150.81   10.53
   6  -3  -4    2.32    2.23
   6   3  -4    3.69    3.14
   6   3  -4   -1.55    2.41
   6  -3  -4    0.93    2.69
   6  -3  -4    4.54    2.25
   6   3  -4    2.07    1.99
   6  -3  -4   -0.71    2.22
   6   3  -4    4.75    6.01
   6  -3  -4    2.30    5.21
   6  -3  -3 2401.74  111.82
   6  -3  -3 2403.93  114.91
   6  -3  -3 2363.07  112.39
   6   3  -3 2577.72  125.36
   6  -3  -3 2414.72  123.76
   6  -3  -2    0.56    2.27
   6   3  -2    2.26    5.71
   6  -3  -2   -2.11    4.48
   6  -3  -1   46.03    6.92
   6  -3  -1   56.47    9.86
   6  -3   0    7.33    3.72
   6  -3   0    3.46    2.86
   6   3   1  284.95   18.26
   6  -3   1  281.44   21.96
  -6  -3  -1  252.86   19.19
   6  -3   1  287.52   16.72
   6  -3   2   72.96    7.00
   6   3   2   86.66    8.43
   6  -3   2   90.47   11.50
   6  -3   2   86.70   12.28
  -6   3  -2   80.61    5.80
  -6  -3  -2   82.63   10.05
   6   3   3  339.08   21.39
   6  -3   3  363.01   19.96
  -6  -3  -3  320.11   24.12
   6  -3   3  330.27   27.38
   6  -3   3  378.29   27.59
   6   3   3  384.90   28.88
   6  -3   4   44.38    8.96
   6   3   4   79.36   12.20
   6  -3   4   57.04   11.07
  -6   3  -4   47.12    9.86
  -6   3  -5 1855.96   95.22
   6  -3   5 1843.47   96.40
   6  -3   5 1695.60   94.52
   6   3   5 1662.94   95.31
  -6   3  -5 1768.17   84.11
  -6   3  -6    4.47    6.46
  -6  -3  -6    3.66    4.17
   6   3   6    4.98    4.90
   6  -3   6   14.43    5.79
  -6   3  -6   15.72    3.58
  -6   3  -7  224.47   13.86
  -6   3  -7  140.19   20.88
   6  -3   7  237.30   21.96
   6  -3   7  216.62   21.55
  -6   3  -7  202.09   14.51
  -6  -3  -7  224.66   14.82
   6   3   7  188.58   21.07
  -6  -3  -7  195.67   23.41
  -6   3  -7  204.91   20.70
  -6   3  -8    1.61    3.40
  -6  -3  -8    2.33    3.17
  -6   3  -8    5.53    3.03
  -6   3  -9   41.67    5.39
  -6  -3  -9   43.92    5.32
  -6   3 -10   -1.64    2.31
  -6  -3 -10    1.60    2.30
   6  -4 -13    1.41    1.61
   6  -4 -13   -0.82    2.09
   6   4 -13    1.57    1.76
   6   4 -12   56.34    5.27
   6  -4 -12   52.92    4.98
   6   4 -12   53.45    6.07
   6  -4 -12   49.40    5.76
   6  -4 -11    4.91    3.60
   6   4 -11    1.55    3.41
   6   4 -11    2.17    2.68
   6   4 -10   75.25    8.11
   6  -4 -10   79.01    8.41
   6   4 -10   71.47    8.18
   6   4 -10   77.08    7.08
   6  -4 -10   95.35    8.68
   6  -4 -10  102.69    7.43
   6  -4  -9    1.71    3.74
   6   4  -9    3.51    3.58
   6  -4  -9    5.36    3.30
   6  -4  -9    0.53    2.42
   6   4  -9    5.04    2.97
   6  -4  -9    8.49    4.19
   6   4  -9   -0.82    3.58
   6   4  -8   18.01    4.23
   6  -4  -8    7.55    3.60
   6   4  -8    5.55    2.72
   6  -4  -8   11.18    3.80
   6  -4  -8    6.57    3.23
   6   4  -8    8.15    3.83
   6  -4  -8   16.68    4.47
   6  -4  -8   12.99    2.89
   6   4  -8   13.47    4.03
   6   4  -7   12.64    3.54
   6   4  -7   13.65    2.70
   6  -4  -7   20.40    4.42
   6  -4  -7    9.50    3.22
   6  -4  -7   14.19    3.68
   6   4  -7   20.39    4.32
   6   4  -7   10.83    4.13
   6  -4  -7    9.11    2.29
   6  -4  -6  116.00    7.27
   6   4  -6  100.07    7.30
   6   4  -6  116.83    8.59
   6   4  -6   95.77    9.33
   6   4  -6  108.69   10.05
   6  -4  -6  115.60    9.81
   6  -4  -6  123.37    9.01
   6  -4  -6  115.92    9.45
   6   4  -5    9.35    2.57
   6   4  -5   23.20    2.73
   6   4  -5   20.03    4.24
   6   4  -5   24.34    4.90
   6  -4  -5   15.76    4.16
   6  -4  -5   16.64    3.67
   6  -4  -5   14.93    3.31
   6   4  -4  197.75   14.22
   6   4  -4  190.14   13.75
   6  -4  -4  199.39   14.93
   6   4  -4  183.68   14.43
   6  -4  -4  234.25   12.86
   6   4  -4  205.49   12.59
   6  -4  -4  197.91   13.77
   6   4  -4  216.26   21.30
   6  -4  -4  210.28   20.80
   6  -4  -3    2.82    1.84
   6   4  -3    1.48    1.94
   6  -4  -3    3.71    3.24
   6   4  -3    5.71    3.14
   6   4  -3    3.23    2.74
   6   4  -3   -2.28    4.83
   6  -4  -3   -4.31    5.45
   6   4  -2   87.53    8.62
   6   4  -2   72.39    7.17
   6   4  -2   70.04   11.99
   6  -4  -2   92.14   12.49
   6   4  -2   81.84    7.98
   6   4  -1    7.12    2.94
   6  -4  -1    3.67    2.60
   6  -4  -1    3.91    4.15
   6   4  -1    5.49    3.08
   6  -4   0  147.37   16.45
   6  -4   0  193.42   15.81
   6  -4   0  162.21   11.33
   6   4   0  182.20   12.74
   6  -4   1   36.61    7.21
   6  -4   1   56.42    5.77
   6   4   1   50.51    6.02
   6  -4   2  492.05   26.78
   6   4   2  485.30   28.42
   6   4   2  558.45   36.58
   6  -4   2  519.18   35.70
   6  -4   2  482.54   33.11
  -6   4  -2  519.24   25.41
  -6  -4  -2  471.83   31.21
   6  -4   3   39.47    4.93
  -6   4  -3   47.18    4.51
   6  -4   3   46.35    8.82
   6   4   3   41.75    9.84
   6  -4   3   48.97    9.95
   6   4   3   39.05    6.00
  -6  -4  -3   40.20    8.06
   6  -4   4   65.33   10.89
   6  -4   4   60.33   11.02
   6   4   4   45.45    9.77
   6   4   4   57.20    7.03
   6  -4   5    2.27    4.45
   6  -4   5    4.82    4.73
   6   4   5    2.46    4.82
  -6   4  -5    4.46    2.89
  -6   4  -5    8.99    5.69
   6   4   6   62.32   11.67
   6  -4   6   78.21   12.87
  -6   4  -6   70.47    6.83
  -6   4  -6   71.13   11.85
  -6  -4  -6   52.57    9.04
  -6   4  -7    7.42    3.68
  -6  -4  -7   13.36    4.18
   6   4   7    9.82    6.25
   6  -4   7   27.88    7.70
  -6   4  -7   23.21    4.27
  -6   4  -7    9.53    8.06
  -6  -4  -7   21.35    8.48
  -6   4  -7   19.92    6.66
  -6   4  -8   42.73    5.33
  -6   4  -8   38.24    5.52
  -6  -4  -8   36.66    5.48
  -6   4  -9    1.33    2.56
  -6  -4  -9    1.29    2.47
  -6   4 -10   51.68    5.24
  -6  -4 -10   49.59    5.17
  -6   4 -11    3.15    1.37
   6  -5 -13  589.55   29.59
   6   5 -13  637.26   30.06
   6  -5 -13  632.31   30.48
   6   5 -12   -0.88    2.43
   6  -5 -12    2.22    2.91
   6  -5 -12   -0.39    2.00
   6  -5 -11   53.32    6.00
   6   5 -11   43.44    5.14
   6   5 -11   57.08    6.38
   6  -5 -10   10.45    3.84
   6   5 -10    5.77    3.12
   6   5 -10    6.66    3.67
   6  -5 -10    7.87    3.19
   6  -5 -10    6.71    3.99
   6   5 -10   11.33    4.14
   6  -5 -10    9.35    3.86
   6  -5  -9  707.59   36.69
   6   5  -9  682.96   36.61
   6   5  -9  692.10   36.44
   6  -5  -9  679.28   36.08
   6  -5  -9  647.45   34.24
   6  -5  -9  651.90   36.53
   6   5  -9  675.64   34.67
   6  -5  -9  739.15   36.47
   6   5  -8   24.30    4.92
   6   5  -8   27.71    4.14
   6  -5  -8   28.22    4.78
   6  -5  -8   26.64    5.34
   6  -5  -8   23.49    4.71
   6  -5  -8   19.59    4.66
   6   5  -8   23.54    4.99
   6   5  -8   22.78    5.01
   6  -5  -8   27.03    3.89
   6   5  -7  180.03   11.17
   6  -5  -7  194.57   13.07
   6  -5  -7  186.71   13.36
   6  -5  -7  170.82   12.43
   6   5  -7  178.34   12.58
   6   5  -7  166.73   12.21
   6  -5  -7  187.45   11.06
   6   5  -7  198.99   14.49
   6  -5  -6   29.66    5.17
   6  -5  -6   27.93    4.32
   6  -5  -6   25.71    3.06
   6   5  -6   24.76    4.95
   6   5  -6   22.03    4.39
   6   5  -6   25.03    3.99
   6   5  -6   27.82    3.41
   6  -5  -6   21.24    4.68
   6   5  -5 2169.02  106.84
   6   5  -5 2364.39  106.06
   6  -5  -5 2306.07  109.46
   6   5  -5 2211.82  109.61
   6  -5  -5 2443.60  108.98
   6   5  -5 2266.20  110.03
   6   5  -5 2288.30  109.50
   6   5  -4   20.09    3.90
   6  -5  -4   14.57    3.11
   6   5  -4   19.27    3.11
   6   5  -4   17.18    4.53
   6   5  -4   14.23    6.05
   6  -5  -4   27.18    7.52
   6   5  -4   17.61    4.43
   6   5  -3  411.38   21.31
   6  -5  -3  409.09   21.15
   6   5  -3  348.98   22.59
   6  -5  -3  399.66   22.08
   6   5  -3  427.64   31.46
   6  -5  -3  404.40   30.21
   6   5  -3  384.45   24.00
   6  -5  -3  386.81   22.56
   6   5  -2   -0.80    2.21
   6   5  -2   -2.25    5.10
   6  -5  -2    6.23    4.07
   6   5  -2   -0.95    2.84
   6   5  -2    0.70    2.31
   6  -5  -1  228.09   16.56
   6   5  -1  205.24   13.94
   6   5  -1  203.04   14.41
   6  -5   0    9.80    3.89
   6  -5   0   10.20    5.42
   6   5   0    5.46    2.69
   6   5   0    7.49    2.40
   6  -5   0    5.38    2.05
   6   5   0    3.20    2.87
   6  -5   0    4.91    2.79
   6  -5   1  661.04   39.37
   6   5   1  611.35   33.53
   6   5   1  645.35   33.11
   6  -5   1  623.44   32.70
   6   5   1  644.46   34.59
   6  -5   1  694.84   33.69
   6  -5   2    3.12    2.60
   6   5   2    1.63    2.85
   6  -5   2    5.24    3.96
   6   5   2    9.08    4.81
   6  -5   2    6.55    5.53
   6   5   2    4.93    2.79
  -6   5  -2    3.76    2.04
  -6  -5  -2    6.13    4.25
   6  -5   3 1870.16   87.15
  -6   5  -3 1737.52   95.84
   6   5   3 1939.90   99.49
   6  -5   3 1819.20   98.07
   6   5   3 1583.37   91.13
   6  -5   3 1844.27   96.11
  -6   5  -3 1896.21   86.18
  -6  -5  -3 1864.45   94.65
  -6   5  -4    3.78    2.41
   6   5   4    2.68    2.86
  -6  -5  -4    1.87    4.23
   6   5   4   -2.45    3.93
  -6   5  -5  335.45   27.83
   6   5   5  340.81   28.45
   6  -5   5  309.42   27.63
   6  -5   6   -2.37    4.65
   6   5   6   -2.49    3.46
   6  -5   6    4.94    4.85
  -6   5  -6   -1.61    3.03
  -6  -5  -6    2.28    3.84
  -6   5  -6    1.36    2.55
  -6   5  -6    6.32    7.15
  -6  -5  -6    3.00    5.88
  -6   5  -6    2.35    4.21
  -6   5  -7  374.57   33.12
  -6  -5  -7  287.04   29.55
  -6   5  -7  386.40   20.82
   6   5   7  357.15   29.42
  -6   5  -7  366.03   21.44
  -6  -5  -7  344.37   20.97
   6  -5   7  319.38   28.37
  -6   5  -8    3.74    3.23
  -6  -5  -8    5.69    3.27
  -6   5  -8    0.61    2.72
  -6   5  -9   36.34    4.45
  -6   5  -9   26.54    4.31
  -6  -5  -9   38.07    4.94
  -6   5 -10    3.34    2.17
  -6  -5 -10    2.29    1.94
   6   5  11  155.85    9.87
  -6   5 -11  259.60   10.62
   6  -6 -13    1.37    1.33
   6  -6 -13   -0.95    1.62
   6  -6 -12  552.00   28.51
   6  -6 -12  542.22   27.53
   6   6 -12  566.59   28.07
   6  -6 -11    3.21    2.86
   6   6 -11    0.53    2.61
   6   6 -11    0.74    3.12
   6   6 -10   84.22    8.49
   6  -6 -10  107.16    8.90
   6   6 -10   87.17    8.80
   6  -6 -10   72.82    8.06
   6   6 -10   83.25    7.29
   6  -6 -10   76.78    7.72
   6  -6 -10   91.72    7.20
   6  -6  -9    3.63    3.71
   6  -6  -9    3.80    3.22
   6   6  -9    1.70    2.68
   6   6  -9    4.12    3.55
   6  -6  -9    1.60    3.20
   6  -6  -9    0.81    3.44
   6   6  -9    2.55    3.48
   6  -6  -9    3.62    2.90
   6  -6  -8  423.44   24.69
   6  -6  -8  429.98   24.72
   6   6  -8  428.36   24.59
   6   6  -8  428.44   24.81
   6  -6  -8  434.80   25.56
   6   6  -8  413.25   25.86
   6   6  -8  438.52   23.16
   6  -6  -8  446.82   24.85
   6  -6  -8  439.34   22.87
   6  -6  -7    1.40    3.07
   6   6  -7    0.73    2.55
   6  -6  -7    1.70    1.90
   6  -6  -7   -0.88    3.14
   6   6  -7   -1.01    3.02
   6   6  -7    1.37    2.51
   6   6  -7   -0.47    2.05
   6  -6  -7   -1.52    3.54
   6   6  -6  867.19   45.75
   6  -6  -6  940.45   45.95
   6   6  -6  918.37   45.67
   6  -6  -6  925.98   44.06
   6   6  -6  938.24   44.54
   6  -6  -6  957.23   47.37
   6   6  -6  841.16   47.06
   6   6  -6  966.53   48.34
   6  -6  -6  927.48   47.99
   6   6  -5    1.70    2.73
   6   6  -5    0.92    3.14
   6   6  -5    3.01    1.97
   6   6  -5    4.08    1.98
   6   6  -5    5.73    3.42
   6  -6  -4 2733.28  118.49
   6   6  -4 2506.88  119.41
   6   6  -4 2719.73  130.63
   6  -6  -4 2798.01  130.18
   6   6  -4 2337.72  115.31
   6   6  -4 2428.74  118.62
   6   6  -4 2508.63  120.34
   6  -6  -4 2653.87  119.20
   6   6  -3   38.48    8.57
   6  -6  -3   21.21    7.29
   6   6  -3   26.43    5.32
   6   6  -3   19.77    3.01
   6  -6  -3   25.83    4.43
   6   6  -3   24.23    4.52
   6  -6  -3   21.27    4.09
   6  -6  -3   32.57    3.85
   6   6  -3   20.63    3.26
   6   6  -3   34.26    5.04
   6  -6  -2  329.59   18.00
   6   6  -2  339.27   18.32
   6   6  -2  335.10   19.75
   6  -6  -2  324.66   25.81
   6  -6  -2  336.94   26.52
   6   6  -2  322.86   20.06
   6  -6  -1   65.82    8.24
   6  -6  -1   86.58   12.11
   6   6  -1   85.00    7.65
   6  -6  -1   86.19    6.58
   6   6  -1   93.92    8.61
   6  -6   0  703.17   43.96
   6  -6   0  635.35   38.97
   6   6   0  655.54   35.19
   6  -6   0  699.14   34.04
   6   6   0  704.06   34.41
   6   6   0  649.04   36.00
   6  -6   1    5.81    2.57
   6   6   1    6.94    2.52
   6   6   1   10.19    3.10
  -6   6  -1   11.12    2.28
   6   6   1    9.06    3.12
   6  -6   1    9.62    3.15
   6  -6   1   14.04    4.69
   6  -6   1    4.31    4.57
  -6   6  -2  717.53   43.18
  -6   6  -2  741.93   34.27
  -6  -6  -2  642.03   40.83
   6   6   2  663.83   36.44
   6  -6   2  694.32   35.34
   6  -6   2  626.19   41.29
   6   6   2  595.17   38.97
  -6   6  -3   -2.07    4.68
  -6   6  -3    2.56    1.96
  -6  -6  -3   -1.80    4.33
   6  -6   3    0.63    2.40
   6   6   3   -4.71    3.55
   6  -6   3    7.02    5.92
  -6   6  -4 1928.02  104.68
  -6   6  -4 2132.70   93.97
  -6  -6  -4 1901.58  102.82
   6  -6   4 2022.19   94.06
   6   6   4 1920.08  106.08
   6   6   4 1726.15  100.03
   6  -6   4 1939.51  105.79
  -6  -6  -5    2.09    4.10
   6   6   5    2.51    4.49
   6  -6   5   -2.50    4.91
  -6   6  -6  487.74   35.06
  -6   6  -6  406.47   36.88
  -6  -6  -6  415.16   36.21
  -6   6  -6  467.69   25.46
   6   6   6  417.91   33.88
  -6   6  -6  449.93   25.83
  -6  -6  -6  450.76   25.58
   6  -6   6  478.04   34.56
  -6   6  -7    0.77    3.03
  -6  -6  -7    0.72    3.28
  -6   6  -7    6.68    3.03
  -6   6  -7    2.94    5.25
  -6  -6  -7    2.79    3.86
   6  -6   7    4.69    4.60
  -6   6  -8  267.24   15.27
  -6   6  -8  217.95   15.21
  -6  -6  -8  255.42   15.56
  -6   6  -9    1.77    2.51
  -6  -6  -9    3.92    2.77
  -6   6  -9    7.97    2.50
  -6   6 -10  125.90    7.89
  -6   6 -11    6.84    1.27
   6  -7 -13   40.06    3.13
   6  -7 -13   43.16    3.54
   6   7 -12    0.41    2.11
   6  -7 -12    3.25    2.55
   6  -7 -11    5.43    3.22
   6   7 -11    6.72    2.97
   6  -7 -11    7.43    2.56
   6   7 -10    0.57    2.70
   6  -7 -10    4.88    3.57
   6   7 -10   -0.79    3.70
   6  -7 -10    1.56    3.47
   6  -7 -10    1.49    2.42
   6  -7  -9  634.36   30.93
   6   7  -9  568.23   30.62
   6   7  -9  514.68   30.06
   6  -7  -9  525.87   30.18
   6  -7  -9  561.21   31.22
   6   7  -9  578.06   29.04
   6  -7  -9  551.43   30.07
   6   7  -9  478.86   30.15
   6  -7  -9  559.93   28.51
   6  -7  -8    4.03    3.48
   6  -7  -8    4.51    3.35
   6   7  -8    5.58    3.55
   6  -7  -8    6.62    4.08
   6   7  -8    6.40    2.80
   6  -7  -8    3.86    3.27
   6   7  -8    5.43    3.41
   6   7  -8    5.18    4.07
   6  -7  -8    1.45    2.26
   6  -7  -7   33.24    4.86
   6   7  -7   24.17    4.59
   6  -7  -7   41.91    6.29
   6   7  -7   24.83    3.70
   6  -7  -7   38.69    5.80
   6   7  -7   30.08    4.71
   6   7  -7   26.85    5.65
   6  -7  -7   32.05    3.83
   6  -7  -6   15.47    2.62
   6   7  -6   19.42    3.21
   6   7  -6   15.80    3.40
   6  -7  -6   27.11    5.14
   6   7  -6   23.88    4.72
   6   7  -6   21.99    4.97
   6  -7  -6   18.52    3.59
   6   7  -6   17.63    4.07
   6   7  -5   16.28    4.25
   6  -7  -5   13.37    3.90
   6   7  -5   15.15    2.74
   6   7  -5   13.92    3.96
   6   7  -5   17.55    4.27
   6  -7  -4    7.15    3.72
   6   7  -4   10.90    4.06
   6   7  -4    7.59    1.96
   6   7  -4    2.13    3.20
   6  -7  -4    4.16    2.59
   6   7  -3   67.15    6.95
   6   7  -3   52.86    5.06
   6  -7  -3   62.33    6.26
   6   7  -3   49.42    6.50
   6  -7  -3   52.92    6.56
   6   7  -3   63.03   10.67
   6  -7  -3   65.17   10.69
   6  -7  -3   52.30    5.14
   6   7  -3   65.05    5.57
   6  -7  -2   21.58    6.73
   6  -7  -2   27.70    3.49
   6   7  -2   20.17    3.31
   6  -7  -2   21.29    4.19
   6   7  -2   13.31    6.47
   6  -7  -2   12.28    5.52
   6   7  -2   22.83    4.40
   6   7  -1  935.68   49.36
   6  -7  -1  900.21   49.86
   6  -7  -1 1067.04   58.31
   6  -7  -1  982.39   46.85
   6   7  -1  951.01   47.05
   6   7  -1  993.61   58.45
   6  -7  -1 1077.77   58.57
   6   7  -1  980.43   48.80
   6  -7   0    9.44    2.64
   6   7   0   19.14    3.19
   6  -7   0   18.49    4.89
   6  -7   0   10.65    5.16
   6   7   0   17.59    4.13
   6   7   0   15.92    3.65
   6   7   1  198.92   12.58
  -6   7  -1  187.76   17.97
   6  -7   1  188.06   12.12
   6   7   1  190.50   13.13
  -6   7  -1  210.26   11.92
   6  -7   1  217.69   13.49
   6   7   1  188.31   13.86
   6  -7   1  219.74   20.57
   6  -7   1  169.69   16.33
  -6   7  -2    9.35    2.60
   6  -7   2   12.19    5.05
   6   7   2    8.02    3.67
  -6   7  -2   15.66    6.09
   6   7   2   11.91    3.70
   6  -7   2   15.79    3.87
   6   7   3  230.14   16.31
   6  -7   3  268.24   15.90
  -6   7  -3  269.42   15.18
  -6   7  -3  246.08   22.57
  -6  -7  -3  219.63   20.85
   6  -7   3  282.67   24.91
   6   7   3  246.18   20.86
   6  -7   4   10.31    3.47
  -6  -7  -4    4.10    4.65
   6   7   4    1.86    2.58
   6  -7   4    5.01    6.02
  -6   7  -4    2.31    4.90
  -6   7  -4    5.87    2.98
  -6  -7  -5   58.14   10.65
  -6   7  -5   71.37    6.66
   6  -7   5   69.02   12.65
  -6   7  -6   -2.92    4.68
  -6  -7  -6   -2.74    4.38
  -6   7  -6    0.70    2.96
  -6   7  -6    1.51    3.02
  -6  -7  -6   -0.70    2.90
  -6   7  -6    2.45    3.92
   6  -7   6   -2.53    5.35
  -6   7  -7   74.90    6.97
  -6  -7  -7   75.00    7.26
  -6   7  -7   60.12    6.86
  -6   7  -8    3.56    2.81
  -6   7  -8    5.27    2.70
  -6  -7  -8    3.69    2.61
  -6   7  -9   24.55    3.60
  -6   7  -9   23.60    3.83
  -6  -7  -9   25.78    3.83
  -6   7 -10   11.61    2.20
   6  -8 -12  212.98   12.38
   6  -8 -11    6.94    2.41
   6  -8 -11   11.12    3.20
   6   8 -11   10.08    3.07
   6  -8 -10  619.43   30.85
   6  -8 -10  576.57   32.92
   6  -8 -10  610.46   32.10
   6   8 -10  624.44   31.52
   6  -8 -10  600.17   32.65
   6  -8  -9    6.51    3.59
   6  -8  -9   11.82    3.77
   6   8  -9   11.14    4.10
   6  -8  -9   10.97    3.02
   6   8  -9   12.52    3.34
   6  -8  -9    7.27    3.42
   6   8  -9    9.51    3.72
   6  -8  -9   10.33    4.07
   6   8  -9    8.19    3.52
   6  -8  -8  470.21   26.22
   6  -8  -8  502.79   27.16
   6   8  -8  478.77   26.53
   6   8  -8  455.72   26.34
   6  -8  -8  447.33   24.49
   6  -8  -8  512.28   26.84
   6   8  -8  464.35   25.05
   6  -8  -8  493.09   27.89
   6   8  -8  453.82   27.92
   6  -8  -7    0.44    1.99
   6  -8  -7   -1.88    3.68
   6   8  -7   -0.51    2.32
   6  -8  -7   -0.78    3.31
   6   8  -7    0.71    2.40
   6  -8  -7   -0.68    2.87
   6   8  -7    0.73    2.46
   6   8  -7    4.23    3.17
   6   8  -6 1426.44   72.66
   6  -8  -6 1555.28   73.04
   6   8  -6 1513.23   73.19
   6   8  -6 1509.79   75.61
   6  -8  -6 1478.01   71.21
   6   8  -6 1620.53   76.00
   6   8  -6 1592.18   72.05
   6   8  -5    1.48    2.37
   6  -8  -5   -0.81    3.18
   6   8  -5   -2.00    3.39
   6   8  -5    4.16    3.33
   6  -8  -5    1.86    3.71
   6   8  -5    1.84    3.29
   6  -8  -4 2027.31   91.69
   6   8  -4 1926.18   92.83
   6   8  -4 1799.52   90.94
   6   8  -4 1884.07   93.87
   6   8  -4 1911.77   89.24
   6  -8  -4 1905.74   92.32
   6  -8  -3   45.88    6.10
   6  -8  -3   54.80    5.09
   6   8  -3   45.80    4.92
   6   8  -3   54.16    5.10
   6  -8  -3   49.49    5.99
   6   8  -3   43.47    6.00
   6   8  -3   58.52    6.20
   6   8  -3   47.12    6.23
   6   8  -3   31.11    8.07
   6  -8  -3   72.44   10.96
   6   8  -2  852.95   45.17
   6   8  -2  875.27   43.74
   6  -8  -2  935.78   44.81
   6  -8  -2  908.56   43.10
   6   8  -2  858.95   43.14
  -6   8   2  865.61   48.51
   6  -8  -2  881.12   45.47
   6  -8  -2  868.64   52.58
   6   8  -2  879.86   53.68
   6  -8  -2  909.19   53.06
   6  -8  -1    7.74    3.35
   6   8  -1    7.01    3.38
  -6   8   1    4.60    3.49
   6  -8  -1    7.94    2.31
   6   8  -1    8.13    2.29
   6   8  -1   -2.22    5.35
   6  -8  -1   10.18    5.16
   6  -8  -1   10.60    5.37
   6   8  -1    5.16    2.79
   6   8   0  868.58   42.60
  -6   8   0  864.14   50.18
   6  -8   0  890.69   42.34
   6  -8   0  915.63   53.72
   6  -8   0  812.46   46.96
   6   8   0  827.59   43.89
   6   8   0  874.30   45.12
   6  -8   1   -1.52    2.71
   6  -8   1    2.30    4.51
   6  -8   1    1.50    1.88
   6   8   1   -0.55    1.77
  -6   8  -1    5.60    4.96
   6   8   1    0.70    2.25
   6   8   1   -0.88    2.90
   6   8   2  621.96   38.88
   6  -8   2  543.53   37.26
   6  -8   2  609.14   31.22
   6   8   2  601.86   31.59
  -6   8  -2  592.51   39.84
  -6   8  -2  644.71   31.29
   6  -8   2  636.73   32.30
   6   8   2  558.21   32.97
   6   8   3    5.21    3.03
   6  -8   3    2.62    2.67
   6  -8   3   -2.50    4.90
   6   8   3    5.69    4.02
  -6   8  -3   -2.21    5.32
  -6  -8  -3   12.14    5.84
  -6   8  -3    3.47    2.41
   6  -8   4 1525.53   89.87
   6   8   4 1433.54   85.51
  -6   8  -4 1732.24   78.22
  -6  -8  -4 1671.04   88.34
  -6   8  -4 1603.57   89.32
   6  -8   4 1625.47   77.87
  -6  -8  -5    2.60    5.10
  -6   8  -5   -0.72    2.50
  -6  -8  -5    1.31    2.41
  -6   8  -5    1.92    2.66
  -6  -8  -5   -4.43    5.01
   6   8   5   -0.93    2.88
   6  -8   5   -2.61    4.67
  -6  -8  -6 1089.96   67.72
  -6   8  -6 1145.80   56.46
  -6   8  -6 1114.62   56.36
  -6  -8  -6 1210.92   56.36
   6  -8   6 1264.58   69.43
  -6   8  -7    5.33    3.25
  -6   8  -7    7.54    3.21
  -6  -8  -7    5.06    2.69
  -6   8  -8  696.14   32.11
  -6  -8  -8  631.92   31.56
  -6   8  -9    1.38    1.91
  -6   8  -9    1.89    1.81
  -6  -8  -9   -1.31    1.82
  -6   8  -9   -1.97    1.84
  -6   8 -10  163.08    9.24
   6  -9 -12    6.85    2.05
   6  -9 -11   11.17    2.51
   6  -9 -11    6.02    2.60
   6  -9 -10   -0.90    2.13
   6  -9 -10   -4.33    3.05
   6  -9 -10    0.83    3.57
   6  -9 -10   -0.74    3.15
   6  -9  -9  140.99   10.96
   6  -9  -9  126.83    8.90
   6  -9  -9  134.05   10.23
   6   9  -9  121.62    9.27
   6  -9  -9  133.55   11.25
   6   9  -9  122.01   10.89
   6  -9  -8    0.83    3.31
   6  -9  -8   -0.69    2.80
   6   9  -8    0.74    2.73
   6  -9  -8    0.48    2.38
   6  -9  -8   -0.75    3.13
   6   9  -8    1.50    3.12
   6   9  -8    0.56    2.92
   6  -9  -8    3.92    4.23
   6   9  -8   -1.09    3.89
   6  -9  -7  104.14    9.55
   6  -9  -7   73.18    6.14
   6   9  -7   72.01    8.86
   6   9  -7   79.66    7.55
   6  -9  -7   86.79    7.56
   6   9  -7   59.65    6.83
   6   9  -7   81.58    6.65
   6   9  -6    1.04    3.32
   6  -9  -6    1.79    2.19
   6   9  -6    0.64    2.47
   6   9  -6    1.59    2.63
   6   9  -6    3.16    3.48
   6   9  -5 1680.51   84.83
   6   9  -5 1675.24   83.31
   6  -9  -5 1795.32   86.44
   6  -9  -5 1874.35   85.82
   6   9  -5 1770.70   86.79
   6   9  -5 1750.14   87.03
   6   9  -5 1867.68   86.79
   6   9  -4   59.71    6.66
   6   9  -4   43.87    6.78
   6   9  -4   49.41    4.85
   6  -9  -4   51.47    6.96
   6   9  -4   49.58    7.60
   6  -9  -4   49.05    6.27
   6   9  -3   17.29    6.55
   6  -9  -3   26.03    6.88
   6   9  -3   24.52    3.56
   6  -9  -3   21.05    4.39
   6   9  -3   19.33    4.23
   6   9  -3   29.75    5.47
   6  -9  -3   20.43    4.73
   6   9  -3   24.11    4.83
   6   9  -2   55.19   10.65
   6  -9  -2  103.81   13.12
   6  -9  -2   90.20    7.76
  -6   9   2   78.82    9.54
   6   9  -2   71.75    6.28
   6   9  -2   75.79    6.64
   6  -9  -2   85.14    8.29
   6  -9  -2   81.76   12.21
   6   9  -2   80.85    7.96
   6   9  -1  123.39    9.78
   6   9  -1  131.54   10.70
  -6   9   1  132.97   13.21
   6   9  -1  107.08    8.03
   6  -9  -1  124.97   10.00
   6  -9  -1   97.93   13.76
   6   9  -1   73.43   12.41
   6  -9  -1   87.24   13.10
   6   9   0    2.26    5.13
   6  -9   0   10.35    6.43
   6   9   0    5.52    3.14
   6  -9   0    4.54    5.15
   6  -9   0    5.56    3.26
   6   9   0   13.42    3.69
  -6   9   0    8.84    5.11
   6   9   0    8.25    2.45
   6   9   1   94.03    8.57
   6   9   1  111.70    9.94
   6  -9   1   80.83   13.03
   6  -9   1  101.81   11.53
   6   9   1  107.44    7.94
  -6   9  -1  118.63   14.17
   6   9   2   30.38    4.32
  -6   9  -2   29.61    7.50
  -6   9  -2   31.65    4.33
   6   9   2   32.11    5.61
   6  -9   2   39.28    5.32
   6  -9   2   30.72    6.82
   6   9   2   13.76    5.15
   6  -9   2   34.80    9.21
   6   9   3  589.27   31.01
   6  -9   3  566.77   30.39
  -6   9  -3  654.75   31.32
  -6   9  -3  626.94   41.15
  -6  -9  -3  540.21   38.66
   6   9   3  600.46   32.95
   6  -9   3  581.12   31.23
   6   9   3  545.21   38.53
  -6   9  -4    4.84    5.81
  -6   9  -4    0.64    2.67
   6  -9   4    2.64    5.59
   6   9   4    4.26    4.82
   6  -9   4    3.70    2.70
  -6  -9  -4    2.23    3.99
   6  -9   5  153.57   19.25
  -6   9  -5  159.11   11.92
  -6  -9  -5  185.94   12.16
  -6  -9  -5  172.11   18.99
  -6   9  -5  212.25   12.78
  -6   9  -5  162.12   19.61
   6  -9   6   15.41    7.44
  -6   9  -6   14.00    3.41
  -6  -9  -6   18.92    3.73
  -6   9  -7  299.36   17.21
  -6  -9  -7  301.29   16.71
  -6   9  -8   13.92    2.92
  -6   9  -8    8.39    2.96
  -6   9  -8    5.27    2.26
  -6   9  -9    9.53    2.57
  -6   9  -9    6.49    2.04
  -6   9 -10    3.82    1.32
   6 -10 -12  147.93    8.44
   6 -10 -12  143.60    8.01
   6 -10 -11    0.44    2.39
   6 -10 -11    0.99    1.69
   6 -10 -10  345.82   18.98
   6 -10 -10  321.24   20.13
   6 -10 -10  330.13   17.83
   6 -10 -10  329.11   19.69
   6 -10  -9   -3.93    3.78
   6  10  -9   -1.87    3.35
   6 -10  -9   -0.66    2.99
   6 -10  -9    0.93    3.47
   6 -10  -9    0.46    2.23
   6  10  -8  604.42   30.73
   6 -10  -8  583.62   31.55
   6  10  -8  553.49   32.84
   6 -10  -8  543.30   28.91
   6 -10  -8  582.25   32.51
   6 -10  -8  584.26   30.93
   6 -10  -7   74.01    6.11
   6  10  -7   81.25    7.40
   6  10  -7   80.98    9.23
   6  10  -6   16.57    5.00
   6 -10  -6   14.94    4.87
   6  10  -6   17.81    4.17
   6  10  -6   24.18    4.01
   6  10  -6   26.02    5.76
   6  10  -5    4.55    3.64
   6 -10  -5    6.11    4.36
   6  10  -5    3.07    3.67
   6  10  -5    1.68    2.01
   6  10  -5   -0.85    3.26
   6  10  -5   -1.10    4.05
   6  10  -4  134.31    9.09
   6 -10  -4  124.60   11.08
   6  10  -4  109.26   10.06
   6 -10  -4  135.62   10.80
   6  10  -4  124.65   11.48
   6  10  -3   97.15    9.26
   6 -10  -3   90.39    8.24
   6  10  -3   67.65    7.76
   6 -10  -3   71.67    8.29
   6  10  -3   86.08    8.68
   6  10  -3   89.50    7.25
   6  10  -2  350.23   20.63
   6  10  -2  306.39   18.67
   6 -10  -2  383.21   20.13
   6 -10  -2  333.27   20.33
   6 -10  -2  289.16   25.24
   6  10  -2  248.08   24.10
   6  10  -1    0.66    2.30
   6  10  -1    2.04    6.73
   6  10  -1    4.92    3.86
   6 -10  -1    0.82    2.95
   6  10  -1    0.82    2.70
   6 -10  -1   -2.23    3.56
  -6  10   1    1.57    2.82
   6  10   0   98.64   13.54
   6  10   0   91.37    9.38
  -6  10   0   83.50   11.95
   6 -10   0   98.35    8.88
   6  10   0  103.66    9.05
   6 -10   0   84.29   13.01
   6  10   1    6.77    3.90
   6 -10   1   19.64    7.36
   6 -10   1   12.00    3.82
  -6  10  -1    6.04    4.29
   6  10   1   12.13    3.35
  -6  10  -2  535.21   26.91
   6 -10   2  531.38   27.80
   6  10   2  473.39   28.76
  -6  10  -2  527.93   36.06
   6  10   2  483.50   34.97
   6 -10   2  468.73   36.43
   6 -10   2  416.93   31.47
  -6  10  -3   37.44    4.94
   6  10   3   46.91    6.45
   6 -10   3   39.16    5.41
  -6 -10  -3   37.95    9.63
   6  10   3   39.74    8.48
   6  10   3   43.06    4.98
  -6  10  -3   35.06    8.76
  -6  10  -4   42.74    5.36
   6 -10   4   39.51    4.96
   6  10   4   24.48    4.13
  -6  10  -4   41.86    9.78
   6 -10   4   24.25    8.76
   6  10   4   47.13    9.29
  -6 -10  -4   41.40    9.33
  -6  10  -5    1.23    2.26
  -6  10  -5    3.32    2.86
  -6 -10  -5    2.30    5.20
   6 -10   5   -2.68    5.24
  -6  10  -6  661.39   36.15
  -6  10  -6  766.72   35.96
  -6  10  -7   10.38    2.72
  -6  10  -7   12.84    2.79
  -6  10  -7   12.21    3.56
  -6  10  -8   99.55    6.35
  -6  10  -8   97.95    5.52
   6  10   8   87.79    5.52
  -6  10  -9    5.60    1.88
  -6  10  -9    5.48    1.84
  -6  10 -10  135.29    7.46
   6 -11 -11   94.79    6.87
   6 -11 -11  103.42    6.42
   6 -11 -10   12.98    2.55
   6 -11 -10   13.71    3.18
   6 -11 -10   13.76    3.86
   6 -11 -10   10.68    3.78
   6 -11  -9  586.43   29.78
   6 -11  -9  619.39   31.22
   6 -11  -9  584.93   32.78
   6  11  -9  587.42   33.03
   6 -11  -8   19.58    3.35
   6 -11  -8   16.67    4.19
   6 -11  -8   20.16    5.12
   6 -11  -7  446.57   24.08
   6  11  -7  535.28   29.48
   6  11  -7  478.08   27.70
   6  11  -6   60.97    7.34
   6  11  -6   56.39    8.02
   6  11  -6   67.80    8.60
   6 -11  -6   67.98    7.93
   6 -11  -5 1875.01   89.00
   6  11  -5 1801.46   90.49
   6  11  -5 1757.71   90.43
   6  11  -5 1883.22   90.38
   6  11  -5 1814.02   88.85
   6 -11  -4    6.64    3.88
   6 -11  -4   11.61    4.45
   6  11  -4    3.56    3.50
   6  11  -4    1.12    3.49
   6  11  -4    6.19    2.35
   6  11  -4    6.16    4.35
   6  11  -3  532.53   28.56
   6  11  -3  491.79   26.11
   6  11  -3  481.05   26.42
   6  11  -3  485.50   29.28
   6 -11  -3  530.56   27.95
   6 -11  -3  456.34   28.15
   6 -11  -2    2.06    4.04
   6 -11  -2    1.75    3.36
   6  11  -2    1.99    2.49
   6  11  -2    3.66    2.93
   6 -11  -2    5.84    3.51
   6  11  -1  183.96   12.54
   6  11  -1  177.39   14.08
   6 -11  -1  189.89   19.64
   6 -11  -1  170.37   13.05
   6  11  -1  186.67   13.35
  -6  11   1  165.43   15.88
   6  11   0   35.35    5.30
  -6  11   0   27.61    6.55
   6  11   0   31.80    6.11
   6 -11   0   31.19    5.41
   6  11   0   25.05    4.59
   6 -11   0   16.73    6.75
  -6  11  -1  571.07   35.95
   6  11   1  494.47   27.51
   6 -11   1  456.84   36.25
   6  11   1  473.99   28.74
   6  11   2    7.01    3.31
  -6  11  -2    1.28    2.62
  -6  11  -2    2.24    4.01
   6 -11   2    7.85    5.54
   6 -11   2    8.98    3.84
  -6 -11  -3  619.84   44.42
  -6  11  -3  720.14   36.09
   6  11   3  620.30   44.65
   6 -11   3  695.47   47.60
   6 -11   3  678.21   35.93
   6  11   3  736.48   38.13
  -6 -11  -4    4.69    6.23
   6  11   4    0.87    2.50
   6 -11   4    3.67    2.94
   6  11   4    2.34    4.18
  -6  11  -4    6.92    3.46
  -6  11  -5  759.70   36.76
  -6 -11  -5  681.11   47.00
   6 -11   5  664.21   48.42
  -6  11  -5  751.57   38.19
  -6  11  -6    2.34    2.28
  -6  11  -7  768.78   39.79
  -6  11  -7  799.27   38.61
   6  11   7  784.80   39.50
  -6  11  -8    2.99    2.22
  -6  11  -8   -0.37    1.84
   6  11   8   -0.41    1.69
  -6  11  -9   96.10    5.99
  -6  11  -9   83.39    6.23
   6 -12 -11    3.19    1.56
   6 -12 -10   74.33    5.36
   6 -12 -10   66.49    5.76
   6 -12 -10   65.97    7.06
   6 -12  -9   10.73    2.54
   6 -12  -9   18.80    3.86
   6  12  -9    6.32    3.50
   6 -12  -9    7.60    4.30
   6 -12  -8   84.51    6.51
   6 -12  -8   86.13    7.76
   6  12  -8   96.30   10.20
   6  12  -7   12.85    5.15
   6 -12  -7   13.70    3.82
   6 -12  -7   11.20    2.68
   6  12  -7    8.05    4.14
   6 -12  -7   11.40    5.18
   6 -12  -6  401.27   24.13
   6  12  -6  415.16   25.72
   6  12  -6  429.16   25.86
   6  12  -6  365.28   23.61
   6 -12  -5   31.40    6.31
   6  12  -5   32.68    6.45
   6  12  -5   34.12    5.82
   6  12  -5   34.91    6.63
   6  12  -4  521.98   32.69
   6 -12  -4  577.38   31.18
   6  12  -4  585.73   29.30
   6  12  -4  536.08   31.38
   6 -12  -3   22.80    4.52
   6  12  -3   23.08    4.89
   6  12  -3   26.54    5.85
   6 -12  -3   15.99    4.37
   6  12  -3   22.17    3.86
   6  12  -3   25.19    3.94
   6 -12  -2  301.18   18.25
   6  12  -2  285.24   19.03
   6  12  -2  318.20   19.66
   6 -12  -2  304.50   19.13
   6 -12  -2  269.36   23.88
   6  12  -2  280.77   17.62
   6  12  -1    7.21    3.69
   6  12  -1    3.31    3.85
   6  12  -1   11.71    4.15
   6 -12  -1    4.29    3.09
   6  12  -1    5.17    2.79
   6  12   0  196.28   15.53
   6  12   0  203.99   14.61
   6 -12   0  199.60   14.29
   6  12   0  210.93   14.21
   6 -12   0  246.15   22.70
   6  12   1    1.06    3.69
   6  12   1    9.74    3.56
   6 -12   1    2.54    4.97
   6 -12   2    5.28    5.60
   6  12   2    7.29    4.34
   6 -12   2    6.89    3.58
  -6 -12  -3    9.45    5.98
  -6  12  -3    7.72    3.23
   6  12   3   -4.90    4.38
   6 -12   3    8.12    5.73
   6  12   3    0.99    3.73
   6 -12   3    6.34    3.04
  -6 -12  -4  129.70   16.64
   6  12   4  129.27   10.93
   6 -12   4  116.43    9.41
   6  12   4  122.25   15.98
  -6  12  -4  156.28   10.63
  -6  12  -5    4.45    2.06
  -6  12  -5    8.73    2.96
  -6  12  -6  133.88    8.63
   6  12   6  118.64    9.50
  -6  12  -7    1.76    2.58
  -6  12  -7    1.99    1.91
   6  12   7    4.24    2.44
  -6  12  -8   45.70    4.81
  -6  12  -8   50.46    4.27
   6  12   8   49.16    4.34
  -6  12  -9    7.44    1.59
   6 -13 -10   14.57    2.57
   6 -13 -10   17.98    3.67
   6 -13  -9   81.22    8.07
   6 -13  -9   77.84    5.61
   6 -13  -9   66.15    6.21
   6 -13  -9   83.88    7.58
   6  13  -9   74.81    8.06
   6 -13  -8   12.28    2.48
   6 -13  -8    4.73    2.96
   6 -13  -8   11.82    3.86
   6  13  -8   17.27    4.99
   6  13  -7 1112.05   55.14
   6 -13  -7  959.98   49.15
   6 -13  -7 1092.75   53.32
   6  13  -7 1030.91   53.40
   6 -13  -7 1096.48   51.68
   6 -13  -6   38.49    6.27
   6  13  -6   28.31    6.25
   6  13  -6   23.88    5.23
   6  13  -6   26.36    6.13
   6 -13  -5   44.45    6.90
   6  13  -5   47.33    7.49
   6  13  -5   64.49    7.58
   6  13  -5   70.71    8.95
   6  13  -4   22.33    5.31
   6  13  -4   33.22    6.83
   6 -13  -4   14.30    4.43
   6  13  -4   26.54    4.00
   6  13  -3 1935.25   99.29
   6 -13  -3 2038.68   96.73
   6  13  -3 2063.72   95.70
   6  13  -3 1996.70   95.93
   6 -13  -2   93.81    8.33
   6  13  -2   92.49    9.23
   6  13  -2   88.32    9.12
   6 -13  -2   89.99    9.04
   6  13  -2   77.81    7.61
   6  13  -1  103.46   10.64
   6  13  -1   96.28    9.62
   6  13  -1   82.97    8.90
   6 -13  -1   95.40    9.07
   6 -13  -1   82.83   12.85
   6  13  -1   94.59    8.49
   6  13   0    8.93    4.39
   6  13   0    1.61    2.89
   6 -13   0    7.18    4.70
   6  13   0   11.43    3.67
   6  13   1 1114.17   56.67
   6 -13   1 1113.40   66.92
   6  13   1 1159.87   58.83
   6 -13   2   16.18    4.43
   6 -13   2    7.86    5.95
   6  13   2    8.62    3.55
   6  13   2    9.60    4.12
   6 -13   3  154.46   11.21
   6  13   3  157.01   12.70
  -6  13  -3  154.39   11.10
   6  13   3  140.95   11.59
   6 -13   3  131.01   17.62
  -6 -13  -3  130.90   16.86
   6  13   4   48.41    6.25
  -6 -13  -4   37.34    8.76
  -6  13  -4   50.25    5.89
   6  13   4   35.68    5.40
   6 -13   4   29.14    8.94
   6  13   5 1055.03   53.05
  -6  13  -5 1137.14   52.73
  -6  13  -5 1017.20   50.56
  -6  13  -6    7.49    2.28
  -6  13  -6   14.84    3.51
   6  13   6   10.04    3.27
   6  13   6    3.78    2.99
   6  13   7  189.09   11.82
  -6  13  -7  193.48   12.27
  -6  13  -7  198.08   11.12
  -6  13  -8    2.04    1.67
  -6  13  -8    3.46    1.54
   6 -14 -10   86.79    5.82
   6 -14 -10   89.24    6.96
   6 -14  -9    1.42    2.89
   6 -14  -9   -0.27    0.53
   6 -14  -9    2.89    2.09
   6 -14  -9    1.80    2.80
   6  14  -9   -0.78    2.79
   6 -14  -8  363.18   12.75
   6 -14  -8  402.17   14.95
   6 -14  -7    3.00    3.34
   6  14  -7   -1.14    4.26
   6 -14  -7    0.68    1.55
   6 -14  -7   -1.86    2.97
   6 -14  -7    5.15    3.94
   6  14  -7   -0.96    3.07
   6  14  -6 1020.00   51.81
   6  14  -6  954.51   49.84
   6 -14  -6  922.23   49.27
   6  14  -6  964.07   51.42
   6  14  -5   14.18    4.66
   6  14  -5   12.85    4.36
   6  14  -5    7.52    4.94
   6 -14  -5   10.35    4.17
   6  14  -4 2709.46  122.80
   6  14  -4 2489.83  125.08
   6  14  -4 2685.73  127.48
   6 -14  -4 2576.33  124.10
   6  14  -3   22.72    4.09
   6 -14  -3   24.83    4.90
   6  14  -3   29.85    6.16
   6  14  -2  399.18   24.84
   6  14  -2  414.03   23.52
   6  14  -2  418.55   23.82
   6  14  -2  432.01   25.59
   6  14  -1   -0.79    2.97
   6  14  -1    3.54    4.01
   6  14  -1    4.78    4.59
   6  14  -1    4.74    3.40
   6  14   0  228.39   15.71
   6  14   0  241.82   16.31
   6  14   0  268.57   18.19
   6 -14   0  199.04   21.41
   6 -14   1    2.46    5.22
   6  14   1    2.47    3.16
   6  14   1    4.44    3.88
   6  14   2  979.67   50.61
   6 -14   2 1029.75   48.64
   6  14   2  906.41   48.74
   6  14   3    3.94    3.45
   6 -14   3    2.68    2.80
  -6  14  -3   11.40    3.70
   6  14   3    5.14    3.50
   6 -14   3    2.59    4.64
  -6 -14  -3    4.71    5.97
   6  14   4  445.07   25.12
  -6  14  -4  435.47   24.32
   6  14   4  433.14   25.05
  -6  14  -5    0.63    2.56
   6  14   5    2.82    2.82
  -6  14  -6  880.81   43.55
   6  14   6  977.72   46.43
   6  14   6  924.26   45.29
  -6  14  -7   12.98    2.12
  -6  14  -7   12.24    2.97
   6  14   7   15.37    2.58
  -6  14  -8  249.59   13.13
  -6  14  -8  229.08   11.96
  -6  14  -9   -0.20    1.04
   6  15  -9   39.52    5.48
   6 -15  -9   61.29    4.82
   6 -15  -8   32.62    4.95
   6  15  -8   43.59    6.44
   6 -15  -8   33.13    4.09
   6 -15  -8   30.15    5.01
   6 -15  -7   51.83    5.30
   6 -15  -7   54.59    6.25
   6  15  -7   53.10    7.72
   6 -15  -7   49.73    6.19
   6  15  -6   -1.14    4.37
   6 -15  -6    1.65    3.42
   6  15  -6   -3.74    3.51
   6  15  -6   -3.45    3.90
   6  15  -5    3.33    3.77
   6  15  -5   -0.98    3.59
   6  15  -5    6.19    4.85
   6 -15  -5    5.74    3.77
   6  15  -4  116.81   10.93
   6  15  -4  118.12    8.75
   6  15  -4  114.80   11.51
   6 -15  -4   80.02    8.65
   6  15  -4  108.11   10.46
   6  15  -3   98.97    8.52
   6  15  -3   97.90   10.92
   6 -15  -3  109.40    9.12
   6  15  -2  191.88   14.35
   6  15  -2  189.47   14.53
   6  15  -2  180.20   12.80
   6  15  -1  188.31   14.48
   6  15  -1  189.66   15.57
   6  15  -1  211.07   14.02
   6 -15   0    2.24    4.01
   6  15   0    4.95    3.38
   6  15   0    9.74    3.10
   6  15   0    4.61    4.33
   6  15   1  200.45   15.59
   6  15   1  216.30   14.26
   6 -15   2    4.87    4.77
   6  15   2    3.16    4.05
   6 -15   2   -2.19    3.36
  -6  15  -2    2.08    3.09
   6  15   2    0.85    2.98
   6 -15   3   59.58    6.28
   6  15   3   68.15    8.12
  -6  15  -3   72.61    7.21
   6  15   3   61.25    7.11
   6  15   4   -2.23    2.52
  -6  15  -4    0.65    2.62
   6  15   4   -1.52    2.98
   6  15   5   61.26    6.33
  -6  15  -5   61.06    6.03
   6  15   6    6.48    2.50
   6  15   6   15.38    3.29
  -6  15  -7   41.85    4.33
   6  16  -9    0.56    1.10
   6 -16  -9    0.92    2.18
   6 -16  -8  575.29   30.33
   6 -16  -8  581.49   30.86
   6 -16  -8  553.42   28.85
   6 -16  -7   74.66    5.36
   6  16  -7   74.27    8.15
   6 -16  -7   68.91    6.32
   6 -16  -7   74.79    6.65
   6  16  -6  476.97   28.09
   6 -16  -6  446.93   25.87
   6  16  -6  459.98   26.89
   6  16  -6  495.70   28.58
   6 -16  -5   -0.76    3.12
   6  16  -5    1.99    2.76
   6  16  -5    1.90    3.57
   6  16  -5    1.20    3.95
   6  16  -4 1216.31   58.63
   6  16  -4 1225.33   63.02
   6 -16  -4 1146.95   59.34
   6  16  -4 1321.79   62.59
   6  16  -4 1145.55   60.86
   6  16  -3   55.81    6.37
   6  16  -3   58.94    7.69
   6  16  -3   71.88    9.43
   6  16  -2  343.26   19.73
   6  16  -2  318.62   20.85
   6  16  -2  307.13   20.68
   6  16  -1   27.09    5.03
   6  16  -1   25.48    4.80
   6  16  -1   26.09    5.34
   6  16  -1   20.08    5.93
   6  16   0  277.19   18.00
   6  16   0  302.16   18.61
   6  16   0  286.38   20.10
   6  16   1   20.65    5.33
   6  16   1   12.19    3.51
  -6  16  -2 1044.57   51.10
   6  16   2  989.75   52.00
   6 -16   2 1032.18   51.19
   6  16   2 1041.23   53.58
  -6  16  -3    9.78    3.63
   6  16   3    6.23    3.37
   6  16   3    6.20    3.63
   6 -16   3    7.35    2.98
   6  16   4  319.82   19.61
  -6  16  -4  356.29   19.52
   6  16   5   -0.57    2.24
  -6  16  -5    0.52    2.04
   6  16   6  438.10   22.29
  -6  16  -6  415.06   22.50
  -6  16  -8  145.68    8.01
   6 -17  -9   98.58    5.37
   6  17  -9   -0.41    0.80
   6 -17  -8   16.32    3.38
   6  17  -8    5.90    3.04
   6 -17  -8    9.45    2.88
   6 -17  -7  620.24   31.65
   6  17  -7  695.25   34.52
   6 -17  -7  611.70   32.05
   6 -17  -7  580.21   30.21
   6 -17  -6    7.30    2.63
   6 -17  -6    1.26    3.01
   6  17  -6   -1.00    3.51
   6  17  -6    7.74    3.72
   6 -17  -5  264.21   16.65
   6  17  -5  294.43   19.56
   6  17  -5  257.52   18.44
   6  17  -5  267.34   17.79
   6  17  -4    1.04    4.16
   6 -17  -4   -0.69    2.81
   6  17  -4   -1.16    3.95
   6  17  -4   -3.55    4.33
   6  17  -3  684.04   35.16
   6  17  -3  719.36   39.02
   6  17  -3  734.35   37.93
   6  17  -3  593.48   36.38
   6  17  -2   11.50    4.43
   6  17  -2    7.95    3.09
   6  17  -1   91.35    8.59
   6  17  -1   92.11    9.17
   6  17   0    0.81    2.92
   6  17   0    8.81    4.75
   6  17   1  374.66   24.02
   6  17   1  395.74   22.26
   6  17   2    9.52    4.38
   6 -17   2    1.86    2.73
  -6  17  -2    4.34    2.72
   6  17   2    5.38    3.08
   6  17   3   57.71    6.96
  -6  17  -3   59.93    6.19
   6  17   3   67.08    6.70
  -6  17  -4    4.81    2.28
   6  17   4    6.81    2.81
   6  17   5  520.87   27.58
  -6  17  -5  554.79   27.51
  -6  17  -6   11.08    2.34
  -6  17  -6   12.72    2.72
  -6  17  -7   17.05    2.18
   6 -18  -8   40.61    4.22
   6  18  -8   37.00    4.83
   6 -18  -7   27.00    4.01
   6  18  -7   33.43    5.23
   6 -18  -6   94.91    6.45
   6  18  -6   86.78    8.64
   6 -18  -6   71.50    7.11
   6 -18  -6   87.48    7.32
   6  18  -5   32.57    6.12
   6  18  -5   32.72    6.08
   6  18  -4    3.02    3.70
   6  18  -4    7.72    4.24
   6  18  -4    6.77    3.88
   6  18  -3    5.67    4.00
   6  18  -3    4.53    4.05
   6  18  -3    2.47    2.16
   6  18  -2  104.31    8.84
   6  18  -2  116.04   10.15
   6  18  -1   -0.73    2.84
   6  18  -1    4.18    2.99
   6  18   0   69.68    7.11
   6  18   0   68.75    8.16
   6  18   0   61.65    7.01
   6  18   1   13.59    4.95
   6  18   2    5.21    3.70
   6 -18   2    9.77    3.01
   6  18   2   12.05    3.47
  -6  18  -2    9.53    2.94
   6  18   3    2.09    2.73
   6  18   3    1.28    2.30
  -6  18  -3    0.52    2.17
  -6  18  -4   12.38    2.67
  -6  18  -4   10.85    2.28
  -6  18  -5    2.50    1.51
  -6  18  -5    6.76    1.93
   6  18   5    6.00    2.68
  -6  18  -6    7.37    1.62
   6 -19  -8   12.43    2.22
   6  19  -8   13.08    2.74
   6 -19  -7  170.40   10.59
   6  19  -7  193.16   12.46
   6  19  -6    1.35    1.87
   6 -19  -6    2.31    2.49
   6  19  -5  883.74   44.48
   6  19  -5  913.91   44.42
   6 -19  -5  819.50   40.70
   6 -19  -5  812.98   41.60
   6  19  -4    0.81    1.60
   6  19  -4    6.99    3.89
   6  19  -4    4.99    3.39
   6  19  -3  684.74   34.90
   6  19  -3  692.75   38.06
   6  19  -3  684.78   36.91
   6  19  -2   33.71    4.74
   6  19  -2   36.83    5.70
   6  19  -1  363.87   20.56
   6  19  -1  320.84   19.55
   6  19  -1  335.96   21.80
   6  19   0    1.99    2.60
   6  19   0    0.96    3.52
   6  19   0    2.05    2.57
   6  19   1  371.28   20.66
  -6  19  -1  374.06   19.64
   6  19   1  354.02   21.75
   6 -19   1  324.76   19.49
  -6  19  -2   56.06    5.38
   6  19   2   55.11    5.85
   6 -19   2   53.58    5.22
   6  19   2   58.03    6.68
  -6  19  -3  571.70   28.58
   6  19   3  553.23   29.33
  -6  19  -4    1.87    1.77
  -6  19  -5  362.45   18.65
   6  19   5  435.68   20.79
   6  20  -7   39.24    4.62
   6 -20  -7   39.80    3.58
   6 -20  -6  335.33   17.65
   6  20  -5    3.73    2.87
   6 -20  -5    4.22    2.35
   6  20  -5   11.09    3.75
   6  20  -4  245.96   16.16
   6  20  -4  257.50   16.90
   6  20  -3   -0.86    3.16
   6  20  -3   -2.77    3.54
   6  20  -3    8.30    3.67
   6  20  -2   31.66    5.13
   6  20  -2   37.08    4.45
   6  20  -1    0.65    2.34
   6  20  -1   -0.90    3.47
   6  20  -1    0.59    2.15
   6  20   0    7.12    2.81
   6  20   0    2.40    2.26
   6  20   0    3.41    3.28
  -6  20  -1   -0.87    1.93
   6  20   1    2.34    2.25
   6 -20   1    0.93    2.18
   6  20   1   -0.77    3.09
   6  20   2  244.27   14.28
  -6  20  -2  222.45   13.24
   6  20   2  241.30   14.84
  -6  20  -3   12.55    2.52
   6 -21  -6    2.35    1.31
   6  21  -5  544.41   29.10
   6 -21  -5  542.01   27.42
   6  21  -5  627.56   30.05
   6  21  -4   36.09    5.10
   6  21  -4   23.57    4.29
   6 -21  -4   34.85    3.68
   6  21  -3   77.05    6.95
   6  21  -3   73.89    6.07
   6  21  -2   40.01    5.13
   6  21  -2   36.32    5.64
   6  21  -1  633.10   33.36
   6  21  -1  648.16   31.45
   6  21  -1  576.82   31.29
   6  21   0   -0.73    2.79
   6 -21   0    4.00    2.05
  -6  21   0    1.44    1.52
   6  21   0    1.00    1.88
   6  21   1  318.08   18.45
   6  21   1  311.83   17.45
   6  21   2   13.11    2.86
   6  21   2   17.97    3.04
   6  21   4    3.49    1.84
   6  22  -5    2.26    1.91
   6  22  -4  327.55   17.70
   6  22  -4  303.15   17.75
   6 -22  -3    3.45    1.46
   6  22  -3    8.73    2.52
   6  22  -3    3.75    2.70
   6 -22  -2  298.12   15.55
   6  22  -2  308.27   18.08
   6  22  -2  293.96   17.46
   6  22  -2  318.00   16.89
   6  22  -1   10.03    3.21
   6  22  -1   10.74    2.24
   6  22  -1   12.53    3.29
   6  22   0  456.55   24.57
   6  22   1    9.44    2.57
   6  22   2  147.83   10.08
   6  22   3   22.37    2.98
   6  23  -3    2.13    1.53
   6  23  -1   19.27    3.12
   6  23   0    0.39    1.45
   6  23   0    0.44    1.60
   6  23   1   62.31    5.27
   7   0 -13  585.78   28.01
   7   0 -12   -0.34    1.77
   7   0 -11 1553.40   73.16
   7   0 -10   19.62    5.29
   7   0 -10   11.68    4.14
   7   0 -10   14.58    3.37
   7   0  -9  585.85   30.74
   7   0  -9  520.79   29.35
   7   0  -9  517.02   27.24
   7   0  -8   57.72    7.06
   7   0  -8   71.48    7.02
   7   0  -8   55.79    5.08
   7   0  -8   45.53    6.69
   7   0  -7  851.14   43.88
   7   0  -7  859.52   45.63
   7   0  -7  867.63   41.08
   7   0  -7  903.73   43.74
   7   0  -7  756.77   43.56
   7   0  -6   31.69    5.91
   7   0  -6   21.65    4.32
   7   0  -6   26.71    4.91
   7   0  -5  293.33   16.82
   7   0  -5  288.63   19.25
   7   0  -5  301.32   28.51
   7   0  -5  244.75   17.26
   7   0  -4   17.28    4.52
   7   0  -4   23.11    4.07
   7   0  -4   15.64    3.45
   7   0  -4    8.68    6.59
   7   0  -3 1405.16   70.99
   7   0  -3 1320.09   67.48
   7   0  -3 1445.43   67.65
   7   0  -3 1578.13   83.79
   7   0  -2    2.90    2.90
   7   0  -2   -1.08    3.48
   7   0  -2    1.25    2.30
   7   0  -2    2.84    5.57
   7   0  -1 1077.06   53.14
   7   0  -1 1070.85   56.00
   7   0  -1 1066.61   55.33
   7   0  -1 1092.91   53.15
   7   0   0    1.99    2.61
   7   0   0    5.16    4.13
   7   0   0    2.79    3.33
   7   0   0    1.99    3.91
   7   0   1 1429.44   69.66
   7   0   1 1561.90   72.67
   7   0   1 1405.02   70.90
   7   0   1 1282.92   77.83
   7   0   2   22.07    5.28
   7   0   2   16.02    6.14
   7   0   3  282.65   19.15
   7   0   3  322.12   26.94
  -7   0  -4   78.83    6.34
  -7   0  -5 5577.77  247.66
  -7   0  -5 4776.77  257.60
   7   0   6   20.37    7.17
  -7   0  -6   37.65    8.46
  -7   0  -7  648.38   34.88
  -7   0  -8    2.13    2.67
  -7   0  -9  655.62   33.66
   7  -1 -13    1.04    1.37
   7  -1 -13    0.81    2.16
   7   1 -13    0.89    1.37
   7  -1 -12  209.09   12.76
   7   1 -12  197.48   11.11
   7  -1 -12  181.57   10.87
   7  -1 -11    8.39    2.80
   7   1 -11    7.19    4.08
   7   1 -11    3.90    2.47
   7  -1 -10   25.61    5.31
   7   1 -10   26.63    5.14
   7   1 -10   21.47    3.63
   7  -1 -10   27.23    3.88
   7  -1  -9   -1.79    3.66
   7   1  -9    2.39    3.31
   7  -1  -9    4.75    3.96
   7  -1  -9    2.76    2.30
   7   1  -9    2.37    2.40
   7  -1  -8    8.55    4.08
   7  -1  -8    6.19    2.66
   7  -1  -8   13.10    2.62
   7   1  -8    9.78    3.94
   7   1  -8   13.04    4.00
   7   1  -8   12.67    2.70
   7  -1  -8    6.95    3.42
   7   1  -7    8.80    2.13
   7  -1  -7    5.17    3.47
   7   1  -7    7.84    3.67
   7   1  -7    4.83    2.68
   7  -1  -7    8.02    4.05
   7  -1  -7    9.33    2.90
   7  -1  -7    7.80    3.66
   7   1  -7    7.65    3.83
   7  -1  -7   16.65    4.58
   7  -1  -7   10.24    2.22
   7  -1  -6   28.53    5.05
   7   1  -6   28.87    4.84
   7   1  -6   33.70    6.16
   7  -1  -6   34.95    6.31
   7   1  -6   22.39    4.21
   7  -1  -6   26.48    4.57
   7  -1  -5   14.92    8.36
   7   1  -5   24.75    4.02
   7  -1  -5   31.40    4.37
   7   1  -5   34.85    5.21
   7  -1  -5   23.34    4.68
   7   1  -5   19.72    5.06
   7  -1  -5   32.26    5.77
   7  -1  -4  631.41   44.12
   7   1  -4  562.47   30.50
   7   1  -4  609.94   34.50
   7   1  -4  574.46   33.24
   7  -1  -4  640.88   34.28
   7  -1  -4  635.58   31.34
   7  -1  -4  560.43   32.01
   7  -1  -4  592.51   31.21
   7  -1  -3    2.40    2.27
   7  -1  -3    7.67    2.67
   7  -1  -3   13.93    8.04
   7  -1  -3   11.27    4.52
   7   1  -3    6.65    4.44
   7  -1  -2   99.98    7.97
   7  -1  -2   96.64    7.93
   7  -1  -2   72.61   13.70
   7  -1  -2  118.31   10.68
   7   1  -2   90.10    9.19
   7  -1  -2   77.05    8.75
   7  -1  -1    3.07    2.61
   7  -1  -1   -1.08    3.75
   7  -1  -1    4.84    3.72
   7   1  -1    5.21    3.91
   7   1  -1    1.85    3.06
   7  -1  -1    2.57    2.68
   7  -1   0  144.76   10.37
   7  -1   0  120.02   14.62
   7   1   0  117.29   10.91
   7  -1   0  143.27   11.75
   7   1   0  161.27   12.72
   7  -1   0  136.56   12.17
   7  -1   0  137.89   10.18
   7  -1   1   25.73    4.31
   7  -1   1   18.79    6.57
   7   1   1   31.07    8.02
   7   1   1   28.17    5.20
   7  -1   1   29.97    5.84
   7   1   1   18.21    4.92
   7   1   2  167.41   18.46
   7  -1   2  157.54   17.63
   7  -1   2  162.41   13.13
   7   1   2  157.26   13.01
   7  -1   3   -2.35    4.98
   7   1   3    2.47    4.85
  -7   1  -3   -0.89    1.71
   7   1   3    1.94    3.88
  -7  -1  -4   28.46    3.63
  -7   1  -4   28.24    3.91
  -7   1  -5    6.70    5.07
  -7   1  -5   14.85    3.28
   7   1   5   10.36    7.19
  -7  -1  -5    4.02    2.19
  -7   1  -6  216.27   13.03
  -7  -1  -6  204.69   19.62
  -7   1  -6  193.86   19.64
   7   1   6  154.36   19.69
  -7  -1  -7    7.92    3.71
  -7  -1  -8   42.95    5.71
  -7  -1  -9   -2.82    2.64
   7  -2 -13  318.81   17.10
   7   2 -13  360.41   17.47
   7  -2 -12   18.36    2.72
   7   2 -12   20.25    2.99
   7   2 -12   20.39    3.76
   7  -2 -12   27.59    3.96
   7  -2 -11  449.08   24.78
   7   2 -11  474.79   25.15
   7   2 -11  437.98   22.95
   7  -2 -11  423.79   22.71
   7  -2 -10   29.46    5.93
   7   2 -10   33.26    4.27
   7  -2 -10   30.70    4.16
   7   2 -10   31.46    5.31
   7  -2  -9  605.14   31.96
   7  -2  -9  569.88   30.23
   7   2  -9  588.74   31.23
   7   2  -9  562.02   28.96
   7  -2  -9  547.08   28.71
   7  -2  -8    2.54    3.25
   7  -2  -8    0.66    2.46
   7   2  -8    4.59    3.36
   7   2  -8    2.23    2.05
   7  -2  -8   -0.78    3.18
   7   2  -8    4.07    3.82
   7  -2  -7  178.06   12.28
   7  -2  -7  169.94   11.43
   7   2  -7  167.97   13.63
   7   2  -7  149.07    9.60
   7   2  -7  166.61   11.55
   7  -2  -7  162.93   11.89
   7   2  -7  152.38   11.71
   7  -2  -7  137.23   12.11
   7  -2  -6   -1.08    3.57
   7   2  -6   -1.08    3.23
   7   2  -6    0.64    2.51
   7  -2  -6   -0.72    2.88
   7   2  -6    1.68    1.40
   7  -2  -6   -0.89    3.27
   7   2  -6    0.76    2.45
   7   2  -5  737.25   38.59
   7  -2  -5  794.94   39.42
   7   2  -5  757.80   41.60
   7   2  -5  810.40   42.45
   7  -2  -5  808.34   42.54
   7  -2  -5  756.39   40.46
   7   2  -5  750.42   39.91
   7  -2  -4   28.72    4.52
   7  -2  -4   36.25    5.58
   7  -2  -4   37.32    6.35
   7   2  -4   29.20    6.16
   7   2  -4   36.73    5.90
   7   2  -4   29.57    3.97
   7  -2  -4   45.78    5.20
   7   2  -4   39.30    5.11
   7  -2  -4   45.06   11.38
   7  -2  -3  101.63   10.46
   7   2  -3  105.41   10.97
   7  -2  -3  122.90    9.37
   7  -2  -3  131.05    9.21
   7   2  -3  114.01    9.01
   7  -2  -3  134.29   17.66
   7   2  -2   16.47    4.26
   7  -2  -2   14.15    4.56
   7  -2  -2   19.59    3.97
   7  -2  -2    8.23    6.62
   7  -2  -2   16.95    3.28
   7   2  -2   12.96    3.16
   7  -2  -1  451.99   25.12
   7   2  -1  462.98   25.40
   7   2  -1  477.68   28.12
   7   2  -1  451.65   26.99
   7  -2  -1  519.39   28.92
   7  -2  -1  470.59   27.62
   7  -2   0   49.34    5.77
   7  -2   0   63.95    9.99
   7  -2   0   40.54    5.26
   7   2   0   41.71    5.38
   7  -2   0   46.27    7.26
   7  -2   0   51.62    6.96
   7   2   0   51.90    7.41
   7   2   0   52.48    6.68
   7  -2   1  215.94   13.91
   7  -2   1  225.60   20.08
   7   2   1  198.92   13.71
   7  -2   1  211.28   13.81
   7  -2   1  239.01   16.37
   7   2   1  227.54   15.82
   7   2   1  196.45   14.54
   7   2   2    6.49    2.85
   7   2   2    7.04    3.70
   7  -2   2    8.67    5.76
   7   2   2   14.62    6.48
   7  -2   2    7.67    7.09
   7   2   3  250.45   17.39
  -7   2  -3  249.42   14.50
   7  -2   3  252.50   24.32
   7  -2   3  259.91   23.49
  -7   2  -4   -0.54    2.02
   7  -2   4   -2.41    5.46
   7   2   4   -2.60    5.09
   7  -2   4    5.19    4.16
  -7   2  -5 1249.12   60.08
   7   2   5 1304.72   73.89
   7  -2   5 1225.77   72.03
  -7   2  -5 1164.39   70.30
  -7   2  -6    2.93    2.65
   7   2   6   10.36    6.88
  -7   2  -6   -2.21    5.00
  -7  -2  -6    5.86    4.14
  -7  -2  -7  892.51   48.15
  -7   2  -7  998.07   47.10
  -7  -2  -8    0.69    2.71
  -7   2  -9  195.76   12.32
  -7  -2  -9  185.49   12.13
   7  -3 -13   16.99    2.82
   7  -3 -12  526.98   26.45
   7   3 -12  546.04   26.67
   7  -3 -12  478.04   24.54
   7   3 -12  473.03   24.76
   7  -3 -11   46.12    5.75
   7   3 -11   38.56    4.36
   7   3 -11   34.80    5.31
   7  -3 -11   37.43    4.14
   7  -3 -10  285.99   18.12
   7   3 -10  279.21   18.21
   7   3 -10  287.51   17.73
   7   3 -10  286.11   15.94
   7  -3 -10  275.79   17.57
   7  -3 -10  262.09   15.40
   7  -3  -9   19.04    5.10
   7   3  -9   20.40    5.07
   7  -3  -9   16.07    4.10
   7   3  -9   15.95    4.44
   7   3  -9   14.58    3.08
   7  -3  -8   89.20    8.90
   7   3  -8  106.18    9.44
   7  -3  -8  101.02    8.60
   7   3  -8   90.25    7.11
   7   3  -8  109.20    9.19
   7   3  -8   92.48    9.84
   7  -3  -7   22.24    4.44
   7   3  -7   25.25    4.74
   7  -3  -7   22.65    3.99
   7   3  -7   18.91    5.05
   7   3  -7   23.17    4.31
   7  -3  -7   14.65    4.25
   7   3  -7   19.85    3.03
   7  -3  -7   23.03    5.18
   7   3  -6   60.74    4.95
   7   3  -6   58.32    6.16
   7  -3  -6   78.27    7.34
   7   3  -6   77.07    8.73
   7  -3  -6   58.00    7.17
   7   3  -6   61.90    6.62
   7  -3  -6   58.02    6.21
   7   3  -5   15.49    3.00
   7  -3  -5   11.78    3.53
   7   3  -5    1.10    3.31
   7  -3  -5    4.40    3.44
   7   3  -5    7.01    3.69
   7  -3  -5   14.04    4.35
   7   3  -5    9.65    3.33
   7   3  -4 1544.27   83.38
   7  -3  -4 1456.46   81.82
   7   3  -4 1278.86   66.09
   7   3  -4 1401.47   69.62
   7  -3  -4 1471.93   71.02
   7   3  -4 1343.84   70.57
   7  -3  -4 1444.65   67.31
   7   3  -4 1472.55   67.66
   7  -3  -4 1295.59   68.58
   7  -3  -4 1458.16   68.02
   7  -3  -3   -1.06    3.29
   7   3  -3    2.23    3.46
   7  -3  -3    0.68    2.55
   7  -3  -3   -1.16    2.28
   7   3  -3    0.62    2.27
   7   3  -3   -2.88    5.15
   7  -3  -3   -2.69    5.28
   7   3  -2  931.48   49.80
   7  -3  -2 1028.62   51.47
   7  -3  -2  966.95   48.57
   7   3  -2  894.03   60.83
   7  -3  -2  910.64   60.22
   7  -3  -2  967.12   47.87
   7   3  -2 1009.90   48.37
   7  -3  -1    4.13    2.27
   7   3  -1    5.73    2.34
   7   3  -1    2.08    2.89
   7   3  -1   -0.88    3.15
   7  -3   0 1175.04   56.81
   7   3   0 1190.19   57.14
   7  -3   0  980.43   62.81
   7  -3   0 1223.96   57.50
   7   3   0 1136.98   58.32
   7   3   0 1140.60   59.33
   7   3   1   -1.02    3.04
   7   3   1   -0.85    2.63
  -7  -3  -1    1.22    2.39
   7  -3   1   -4.69    3.03
   7   3   1    1.41    2.77
   7  -3   1    0.70    2.76
   7  -3   1   -1.98    3.55
  -7  -3  -2  266.40   20.38
   7   3   2  264.99   17.43
   7   3   2  304.55   19.21
   7  -3   2  284.39   17.19
   7  -3   2  241.49   24.57
   7  -3   2  282.60   24.04
   7   3   3   83.80    8.97
   7  -3   3   88.22   13.31
   7  -3   3   62.41   12.15
  -7   3  -3   82.37    6.71
  -7   3  -4   69.48   12.28
   7   3   4   70.80    8.08
   7  -3   4   61.90   11.40
   7   3   4   71.51   12.22
   7  -3   4   60.42   12.13
  -7   3  -4   74.86    6.52
   7  -3   5    2.45    4.40
   7   3   5   15.90    7.65
   7  -3   5   10.43    6.27
  -7   3  -5    7.04    5.32
  -7   3  -5    5.40    3.23
  -7  -3  -6  689.73   48.08
  -7   3  -6  931.25   53.00
   7   3   6  836.95   53.57
   7  -3   6  718.96   51.27
  -7   3  -6  888.93   41.89
  -7   3  -7    5.07    2.92
  -7   3  -7    3.86    4.10
  -7  -3  -7    0.76    3.20
  -7   3  -8  256.94   16.03
  -7  -3  -8  259.73   16.01
  -7   3  -9    1.07    2.23
  -7  -3  -9    0.53    2.31
   7  -3  10  315.47   16.39
   7   3  10  323.43   16.51
   7  -4 -13    1.35    1.63
   7  -4 -12    5.73    1.88
   7   4 -12    5.47    2.56
   7   4 -12    3.78    2.01
   7  -4 -12    3.17    2.78
   7  -4 -11   48.99    4.73
   7   4 -11   54.71    5.25
   7  -4 -11   64.41    6.49
   7   4 -11   60.99    6.77
   7  -4 -10   12.66    4.61
   7   4 -10   12.16    3.21
   7   4 -10   10.17    4.28
   7  -4 -10   11.08    2.76
   7  -4 -10   13.02    4.45
   7   4 -10   15.27    4.59
   7  -4  -9   52.14    6.84
   7   4  -9   42.76    6.00
   7  -4  -9   43.41    5.57
   7  -4  -9   27.48    5.27
   7   4  -9   31.89    4.28
   7   4  -9   39.84    6.02
   7  -4  -8    0.73    3.02
   7  -4  -8    3.28    3.41
   7   4  -8    6.79    3.66
   7   4  -8    2.28    2.92
   7   4  -8    2.77    2.34
   7   4  -8    1.07    2.97
   7  -4  -7   35.30    5.23
   7  -4  -7   40.31    5.81
   7   4  -7   33.95    5.31
   7   4  -7   37.93    6.67
   7   4  -7   41.42    4.30
   7   4  -7   41.81    5.37
   7   4  -6   11.76    3.29
   7   4  -6   14.03    2.53
   7   4  -6   11.70    4.62
   7  -4  -6    7.58    3.68
   7  -4  -6   14.41    3.47
   7   4  -5  144.04   10.35
   7   4  -5  153.76   12.67
   7   4  -5  170.54   13.69
   7  -4  -5  176.98   12.94
   7   4  -5  142.93   11.27
   7  -4  -5  189.34   12.09
   7   4  -4    5.64    3.45
   7   4  -4   10.30    4.30
   7   4  -4    2.92    5.72
   7  -4  -4   10.94    6.56
   7  -4  -4    0.72    2.70
   7  -4  -4    1.79    2.43
   7   4  -4    0.63    2.53
   7   4  -3   29.85    5.01
   7   4  -3   31.62    6.05
   7   4  -3   11.48    8.05
   7  -4  -3   31.82    9.57
   7  -4  -3   35.27    4.88
   7  -4  -3   21.75    4.02
   7   4  -3   25.91    4.07
   7   4  -2   33.49    5.44
   7   4  -2   28.90    9.05
   7  -4  -2   18.54    8.58
   7  -4  -2   30.02    4.40
   7   4  -2   30.85    4.52
   7  -4  -2   25.18    4.53
   7   4  -1   61.01    7.73
   7   4  -1   47.44    6.19
   7   4  -1   52.39    5.74
   7  -4  -1   58.03    5.81
   7  -4   0    1.23    2.25
   7   4   0    1.99    2.43
  -7  -4   0    1.20    2.88
   7   4   0    2.07    3.31
   7   4   0   -0.85    2.97
   7  -4   0    1.42    2.73
   7  -4   0    1.77    3.75
   7  -4   0   -5.01    6.33
   7  -4   1  109.95    8.92
   7   4   1  109.88    9.17
   7   4   1  118.35   10.81
   7   4   1  123.66   10.12
  -7  -4  -1  101.86   11.38
   7  -4   1  110.54    9.21
   7  -4   1  125.99   14.54
   7   4   2   15.89    3.94
   7   4   2   15.36    4.55
  -7  -4  -2   14.82    4.95
   7  -4   2   17.83    4.06
   7  -4   2   16.69    6.07
   7  -4   2   20.68    7.20
  -7  -4  -3  256.49   21.61
   7   4   3  321.09   19.92
   7   4   3  314.47   27.73
   7  -4   3  283.28   26.74
   7  -4   3  276.58   25.01
   7   4   4   24.31    5.30
  -7   4  -4   23.75    3.99
   7  -4   4   18.80    6.61
   7   4   4   34.88    9.42
   7  -4   4   29.15    9.31
  -7   4  -5  553.12   39.72
  -7   4  -5  598.33   30.36
   7   4   5  589.62   42.11
   7  -4   5  531.11   40.50
   7  -4   5  536.88   39.76
  -7   4  -6    2.30    4.51
   7  -4   6    2.40    4.30
   7   4   6    5.12    5.02
   7  -4   6   -2.50    5.29
  -7   4  -6    0.61    2.58
  -7   4  -6    3.18    5.08
  -7  -4  -6   -3.10    4.96
  -7   4  -6    1.61    2.95
  -7  -4  -6    0.78    3.53
  -7   4  -7  143.42   10.11
  -7   4  -7  140.35   11.02
  -7  -4  -7  156.99   11.32
  -7   4  -8   -0.65    2.61
  -7  -4  -8    0.63    2.73
  -7   4  -9   60.22    5.70
  -7  -4  -9   64.88    5.90
  -7   4 -10    1.78    1.24
   7  -4  10    0.25    1.23
   7   4  10    0.27    1.33
   7  -5 -13   41.64    3.82
   7  -5 -12  122.41    7.92
   7  -5 -12  198.63   10.47
   7  -5 -11   -2.52    3.53
   7   5 -11   -4.02    3.39
   7   5 -11    1.30    2.16
   7  -5 -11    2.85    2.15
   7  -5 -10  666.61   34.23
   7   5 -10  650.24   34.33
   7  -5 -10  617.89   33.37
   7   5 -10  674.80   34.22
   7  -5 -10  619.83   33.63
   7   5 -10  606.65   31.98
   7   5  -9   -0.88    2.45
   7   5  -9    2.48    2.44
   7  -5  -9   -0.78    3.47
   7   5  -9    3.17    3.58
   7  -5  -9    0.81    3.62
   7   5  -9    0.85    3.91
   7  -5  -9    2.23    3.09
   7  -5  -8   74.61    5.78
   7   5  -8   70.35    5.99
   7  -5  -8   74.12    7.75
   7   5  -8   70.75    8.69
   7  -5  -8   63.25    7.30
   7   5  -8   54.43    7.12
   7   5  -8   82.03    7.73
   7  -5  -8   78.57    7.74
   7   5  -7    5.54    3.14
   7   5  -7    3.03    2.06
   7  -5  -7    2.25    2.95
   7   5  -7    2.36    3.33
   7   5  -7    7.83    3.80
   7   5  -6 1294.62   63.49
   7   5  -6 1305.77   61.93
   7   5  -6 1280.90   66.23
   7   5  -6 1359.08   66.79
   7  -5  -6 1384.42   64.49
   7  -5  -6 1244.48   65.73
   7   5  -5   -0.52    1.67
   7  -5  -5   -0.93    3.16
   7   5  -5    6.75    4.12
   7   5  -5    5.94    3.63
   7  -5  -5    0.75    2.62
   7   5  -4  956.28   54.06
   7  -5  -4 1011.90   50.67
   7   5  -4 1093.76   51.26
   7   5  -4 1068.65   65.27
   7  -5  -4 1006.37   63.27
   7  -5  -4 1038.24   51.81
   7  -5  -3    5.11    3.10
   7   5  -3    3.88    3.21
   7   5  -3    3.46    3.81
   7   5  -3    2.71    3.32
   7  -5  -3    9.62    4.09
   7  -5  -3    8.48    2.73
   7   5  -3    5.50    2.65
   7   5  -3    5.73    1.92
   7   5  -3   14.23    7.89
   7  -5  -3   15.69    7.55
   7   5  -2  592.52   33.21
   7   5  -2  587.91   43.78
   7  -5  -2  650.28   44.04
   7  -5  -2  628.72   32.48
   7  -5  -2  606.46   31.25
   7   5  -2  592.13   31.49
   7   5  -1    0.85    2.91
   7   5  -1   10.73    4.30
   7   5  -1    8.77    6.20
   7  -5  -1    5.34    6.76
   7   5  -1   12.38    4.04
   7   5  -1    4.99    2.75
   7  -5  -1    8.53    2.82
   7   5   0  610.36   35.39
   7   5   0  603.24   34.09
   7  -5   0  665.74   39.73
   7  -5   0  611.07   43.29
   7   5   0  597.65   34.70
   7  -5   0  656.62   33.74
   7   5   0  646.00   33.15
   7  -5   0  651.78   32.83
   7  -5   1   10.87    3.33
   7   5   1    6.91    2.94
  -7  -5  -1    2.92    2.88
   7   5   1   10.52    4.46
   7   5   1    8.28    3.33
   7  -5   1    5.85    3.32
   7  -5   1    3.79    3.05
   7  -5   2   46.57    5.58
   7   5   2   47.17    6.13
  -7  -5  -2   47.83    8.04
   7   5   2   38.67    6.50
   7   5   2   55.22    6.32
   7  -5   2   51.94    6.20
   7  -5   2   49.24    9.38
   7  -5   2   28.68   10.01
  -7   5  -3   13.72    5.80
  -7  -5  -3    1.72    4.15
   7   5   3   11.19    3.92
   7  -5   3    4.40    3.95
   7  -5   3    5.30    4.75
   7  -5   3   11.12    3.45
   7   5   4  339.05   20.91
   7  -5   4  328.50   28.80
   7  -5   4  285.56   26.38
   7  -5   5   -2.38    4.27
   7   5   5    2.65    5.19
   7  -5   5   -2.64    5.18
  -7   5  -5   -2.43    5.51
  -7   5  -5    3.18    2.65
  -7   5  -6  789.47   51.19
   7  -5   6  811.41   52.43
  -7   5  -6  841.96   42.30
  -7  -5  -6  840.61   42.14
   7  -5   6  766.10   50.87
  -7   5  -6  641.66   52.61
  -7  -5  -6  719.26   53.57
  -7   5  -6  853.51   41.29
  -7   5  -7    1.44    3.04
  -7  -5  -7    0.70    2.95
  -7   5  -7    3.38    2.63
  -7   5  -8  395.86   23.11
  -7  -5  -8  395.84   23.01
  -7   5  -9    0.95    1.93
  -7  -5  -9   -0.45    1.96
   7  -5  10  119.37    6.78
   7   5  10  101.32    6.69
   7  -6 -13  565.27   27.25
   7  -6 -12   -0.46    0.52
   7  -6 -12   -0.45    2.26
   7   6 -11  911.70   43.67
   7  -6 -11  909.02   43.39
   7  -6 -11  812.83   41.20
   7   6 -11  871.45   42.05
   7  -6 -10   19.74    4.55
   7   6 -10   18.72    4.47
   7  -6 -10   22.54    4.54
   7  -6 -10   15.42    4.34
   7   6 -10   30.99    5.10
   7   6 -10   20.81    3.55
   7   6  -9  417.61   26.01
   7  -6  -9  441.10   25.52
   7   6  -9  457.18   23.94
   7   6  -9  457.35   25.70
   7  -6  -9  448.20   25.63
   7   6  -9  480.00   26.21
   7  -6  -9  470.36   25.69
   7  -6  -8   15.39    2.63
   7   6  -8    4.42    3.57
   7   6  -8   11.08    2.93
   7  -6  -8   10.51    4.42
   7   6  -8   10.55    3.55
   7  -6  -8   10.14    3.83
   7  -6  -8   11.63    4.19
   7   6  -8   13.11    4.02
   7   6  -7   29.32    6.20
   7  -6  -7   33.11    5.07
   7   6  -7   34.21    5.16
   7   6  -7   31.43    3.82
   7   6  -7   23.38    4.23
   7   6  -6    6.61    2.73
   7   6  -6    4.52    2.07
   7  -6  -6    3.01    3.86
   7  -6  -6    6.07    3.16
   7   6  -6    6.43    2.98
   7   6  -6    3.20    3.20
   7   6  -6    4.15    3.11
   7  -6  -6    9.06    3.48
   7   6  -5 1464.19   74.25
   7   6  -5 1402.71   73.07
   7  -6  -5 1526.42   71.97
   7   6  -4   20.45    5.12
   7  -6  -4   26.05    4.90
   7  -6  -4   28.62    5.36
   7   6  -4   23.92    5.71
   7  -6  -4   31.76    9.55
   7   6  -3  821.26   39.84
   7   6  -3  730.95   42.56
   7  -6  -3  807.32   41.64
   7  -6  -3  771.54   42.39
   7   6  -3  839.35   54.20
   7  -6  -3  854.92   53.04
   7   6  -3  787.11   42.55
   7   6  -3  834.80   44.68
   7   6  -3  851.82   40.80
   7  -6  -3  798.58   40.27
   7  -6  -2    4.47    3.05
   7  -6  -2    7.21    2.52
   7   6  -2    3.64    2.13
   7   6  -2   14.12    6.78
   7  -6  -2    5.15    5.46
   7   6  -2   10.25    4.38
   7   6  -2    2.64    2.74
   7   6  -1 1209.54   63.68
   7  -6  -1 1270.21   73.34
   7  -6  -1 1271.98   61.08
   7   6  -1 1310.07   61.54
   7   6  -1 1345.34   76.52
   7  -6  -1 1401.63   75.90
   7   6  -1 1231.82   64.60
   7   6  -1 1200.24   62.87
   7  -6   0    3.26    3.70
   7  -6   0    2.54    6.44
   7  -6   0    4.14    2.68
   7   6   0    4.51    2.83
   7   6   0    3.28    3.91
   7   6   0    5.03    2.85
   7   6   0    3.88    3.56
   7  -6   0    3.75    3.65
   7   6   1  217.00   16.00
   7  -6   1  221.53   14.96
   7  -6   1  227.95   23.13
   7  -6   1  270.85   21.34
   7  -6   1  238.26   14.46
   7   6   1  229.34   14.60
  -7  -6  -1  213.86   18.61
   7   6   1  197.28   14.93
   7   6   1  268.64   17.67
   7  -6   2   19.73    4.52
   7  -6   2   18.13    6.32
   7  -6   2   20.78    4.21
   7   6   2   19.29    4.16
  -7   6  -2   21.69    7.63
  -7  -6  -2   32.52    7.56
   7   6   2   27.97    5.86
   7  -6   3  622.88   31.80
   7   6   3  598.55   33.80
   7  -6   3  587.71   42.34
   7  -6   3  568.44   39.54
  -7  -6  -3  556.15   37.52
  -7   6  -3  562.77   40.09
   7   6   4   20.45    4.92
  -7  -6  -4   15.38    5.15
  -7   6  -4   29.27    8.31
   7  -6   4    9.16    5.84
   7  -6   4    8.09    6.14
   7  -6   5  368.15   31.51
   7  -6   5  337.44   29.39
  -7   6  -5  404.30   21.92
  -7   6  -6   28.42    4.89
  -7  -6  -6   32.06    5.11
  -7   6  -6   34.32    4.92
  -7   6  -7  805.09   43.24
  -7  -6  -7  855.33   43.32
  -7   6  -7  908.70   42.92
  -7   6  -8    8.02    2.84
  -7  -6  -8    6.00    2.52
  -7   6  -8    6.10    2.45
  -7   6  -9  211.18   11.94
  -7  -6  -9  196.89   11.66
   7  -6   9  193.35   11.02
   7   6   9  187.97   11.15
  -7   6 -10    1.05    0.82
   7  -7 -12   45.69    4.56
   7  -7 -11    4.44    2.88
   7  -7 -11   -0.60    1.12
   7   7 -10  283.49   17.30
   7  -7 -10  275.20   17.14
   7  -7 -10  270.29   17.00
   7   7 -10  289.28   16.01
   7  -7  -9   11.95    2.47
   7   7  -9   14.83    3.91
   7  -7  -9   13.25    4.04
   7   7  -9   15.79    4.51
   7  -7  -9    9.95    3.97
   7  -7  -9   17.20    4.44
   7   7  -9   19.42    4.79
   7   7  -9   15.03    3.19
   7  -7  -8  312.14   17.72
   7   7  -8  353.39   20.31
   7  -7  -8  370.35   20.63
   7   7  -8  314.48   20.26
   7  -7  -8  364.23   20.90
   7   7  -8  328.27   22.06
   7  -7  -8  366.98   21.01
   7   7  -8  347.61   18.70
   7  -7  -7   20.86    5.28
   7  -7  -7    9.08    3.30
   7  -7  -7   14.35    3.88
   7   7  -7   10.71    3.50
   7   7  -7    9.08    4.19
   7  -7  -7   11.67    4.35
   7   7  -7    9.34    2.72
   7   7  -7   11.49    3.37
   7  -7  -6  504.03   27.24
   7   7  -6  504.54   27.49
   7  -7  -6  520.21   28.10
   7  -7  -6  526.99   29.14
   7   7  -6  491.53   29.65
   7   7  -6  469.23   29.16
   7  -7  -5    8.90    4.35
   7  -7  -5   12.80    4.26
   7   7  -5    4.32    4.07
   7   7  -5    6.12    4.02
   7   7  -5   11.75    5.08
   7  -7  -4   22.78    4.94
   7   7  -4   18.50    5.65
   7   7  -4   15.84    4.78
   7   7  -3   10.29    2.75
   7   7  -3    6.17    3.53
   7  -7  -3   15.99    3.26
   7   7  -3   19.02    3.60
   7   7  -3   19.33    7.99
   7  -7  -3    7.60    5.39
   7  -7  -3    8.33    3.74
   7   7  -3   10.26    3.92
   7   7  -3   14.64    5.37
   7  -7  -2  396.66   20.97
   7   7  -2  371.37   21.09
   7   7  -2  342.19   22.54
   7   7  -2  386.13   24.64
   7   7  -2  425.05   33.51
   7  -7  -2  329.13   29.87
   7  -7  -2  408.32   23.47
   7  -7  -1   11.65    2.87
   7   7  -1    6.66    2.97
   7   7  -1    2.85    6.47
   7  -7  -1    7.80    6.91
   7   7  -1    9.23    4.44
   7   7  -1   10.42    3.76
   7   7  -1    4.03    3.15
   7  -7  -1   18.34    4.38
   7  -7  -1    2.52    4.52
   7   7   0  205.54   14.38
   7  -7   0  171.84   16.48
   7  -7   0  213.95   21.68
   7  -7   0  196.34   13.71
   7   7   0  167.02   14.11
   7  -7   0  218.16   12.89
   7   7   0  198.44   12.92
   7   7   1    1.66    2.81
   7  -7   1    1.78    3.19
   7  -7   1    7.88    5.56
   7   7   1   -0.99    3.16
   7  -7   1    5.33    3.39
   7  -7   1    3.65    2.62
   7   7   1    3.99    2.61
  -7   7  -1   -2.05    5.19
   7  -7   2  141.61   10.22
   7   7   2  131.78   10.39
  -7   7  -2  136.90   16.71
  -7  -7  -2  141.66   15.16
   7   7   2  167.70   13.50
   7  -7   2  142.40   10.91
   7  -7   2  106.23   13.88
   7  -7   3   -1.28    2.60
   7   7   3    6.50    3.27
  -7   7  -3   -2.36    4.22
  -7  -7  -3   -1.94    4.38
   7   7   3   -2.15    4.13
   7  -7   3    1.41    3.08
  -7   7  -3    4.08    2.23
   7  -7   3   -2.13    4.17
   7  -7   3    2.72    5.75
  -7   7  -4   96.07   14.20
  -7  -7  -4   56.11   10.19
   7  -7   4   87.63   12.77
   7  -7   4   67.93   13.11
   7   7   4   75.89    8.55
  -7   7  -5    0.65    2.61
   7  -7   5    6.87    5.50
   7  -7   5   -2.65    4.74
  -7   7  -6  401.65   21.34
  -7  -7  -6  371.63   21.35
  -7   7  -6  348.96   21.33
  -7   7  -7    5.11    2.71
  -7  -7  -7    3.60    2.72
  -7   7  -7    3.89    2.68
   7  -7   8   38.54    4.14
  -7   7  -8   47.86    4.64
  -7   7  -8   32.78    4.44
  -7  -7  -8   33.25    4.41
  -7   7  -9    5.45    1.58
   7  -7   9    3.97    1.62
   7   7   9    1.77    1.40
   7  -8 -12   32.74    3.41
   7  -8 -11 1061.32   18.97
   7  -8 -11    0.52    0.51
   7  -8 -10   17.74    4.02
   7  -8 -10   28.28    4.80
   7   8  -9 1038.18   54.68
   7  -8  -9  998.84   50.71
   7  -8  -9 1165.20   53.48
   7   8  -9 1074.28   53.49
   7   8  -9 1114.20   53.42
   7  -8  -9 1040.47   53.57
   7  -8  -9 1149.24   53.81
   7   8  -8    3.37    4.12
   7  -8  -8    0.36    1.70
   7  -8  -8   -1.41    3.04
   7  -8  -8    0.80    3.34
   7   8  -8    3.05    3.11
   7  -8  -8    0.79    3.35
   7   8  -8    1.39    2.73
   7   8  -7   85.14    9.65
   7  -8  -7   80.24    8.27
   7  -8  -7   98.32    8.09
   7   8  -7   96.88    8.37
   7   8  -7   71.93    7.19
   7  -8  -7   82.71    8.87
   7  -8  -7   76.58    7.71
   7  -8  -6   14.88    3.68
   7   8  -6   18.10    4.02
   7  -8  -6   15.34    3.91
   7   8  -6   26.43    5.34
   7   8  -6   19.99    5.01
   7  -8  -5 1747.99   90.72
   7  -8  -5 1906.93   90.36
   7   8  -5 1818.00   91.53
   7   8  -5 1980.38   92.76
   7   8  -5 1858.98   91.34
   7  -8  -4    2.93    3.75
   7   8  -4    3.82    3.95
   7   8  -4    6.58    3.73
   7   8  -3 1394.62   67.28
   7  -8  -3 1480.01   67.48
   7   8  -3 1422.03   67.61
   7   8  -3 1338.95   70.59
   7  -8  -3 1353.07   69.91
   7   8  -3 1405.72   72.30
   7   8  -3 1374.36   70.12
   7   8  -3 1372.52   80.57
   7  -8  -3 1444.10   80.07
   7   8  -2   16.25    7.82
   7  -8  -2    9.90    5.25
   7   8  -2    8.12    2.29
   7  -8  -2    6.42    2.20
  -7   8   2   11.07    4.74
   7  -8  -2    6.54    3.90
   7   8  -2    1.24    3.71
   7   8  -2    4.63    3.41
   7   8  -2    6.13    2.66
   7  -8  -1 1855.35   86.91
   7   8  -1 1833.36   88.65
  -7   8   1 1872.45   93.85
   7  -8  -1 1893.97   85.19
   7   8  -1 1725.93   85.20
   7  -8  -1 1848.47   98.74
   7  -8  -1 1831.16   87.89
   7   8  -1 1583.61   97.55
   7  -8  -1 1800.13   98.34
   7   8  -1 1665.96   87.06
  -7   8   0   64.10   10.27
   7  -8   0   57.21    5.69
   7   8   0   62.50    6.14
   7   8   0   45.94    6.41
   7  -8   0   73.22   12.81
   7   8   0   69.39   12.92
   7  -8   0   63.38   12.22
   7   8   0   46.63    7.24
   7  -8   0   53.45    6.51
   7  -8   1  526.92   39.57
   7  -8   1  480.37   33.76
   7   8   1  543.21   29.82
   7  -8   1  532.59   28.14
   7   8   1  532.90   28.51
  -7   8  -1  526.51   36.62
   7   8   1  519.41   30.72
   7  -8   1  578.23   29.82
   7   8   2    0.99    3.06
   7  -8   2    0.75    3.08
   7  -8   2    4.84    2.74
   7   8   2    2.03    2.77
  -7   8  -2    2.25    5.08
   7  -8   2   -1.90    4.03
   7  -8   2   -2.72    4.87
  -7   8  -2   -0.50    1.91
  -7  -8  -2    1.97    3.85
   7  -8   3  810.59   41.58
  -7  -8  -3  820.39   49.80
  -7   8  -3  852.62   52.18
  -7   8  -3  872.61   40.60
   7   8   3  795.88   44.14
   7  -8   3  767.34   49.37
   7  -8   3  753.32   40.61
   7   8   3  817.98   41.52
   7   8   4   -1.03    3.86
  -7  -8  -4   -2.08    4.99
   7  -8   4    2.18    3.50
   7  -8   4   -2.73    5.36
   7  -8   4   -1.21    2.46
   7   8   4   -2.07    2.59
  -7   8  -4    2.47    4.83
  -7   8  -5  513.57   43.43
   7   8   5  689.25   35.44
   7  -8   5  653.53   33.18
   7  -8   5  662.37   45.57
  -7   8  -5  624.03   33.82
  -7  -8  -5  685.50   33.94
   7  -8   5  561.08   41.55
  -7   8  -6    1.25    2.50
  -7   8  -6    2.64    2.65
  -7  -8  -6    1.23    2.46
  -7  -8  -7 1854.65   89.46
  -7   8  -7 1823.52   89.70
  -7   8  -7 2063.78   89.91
   7  -8   7 1872.78   88.93
   7  -8   8    0.34    1.66
   7   8   8   -0.38    1.72
  -7   8  -8    3.05    1.80
  -7   8  -8   -0.88    1.85
  -7   8  -8   -0.91    1.67
  -7  -8  -8   -1.27    1.66
   7   8   9    0.22    0.35
  -7   8  -9  415.07    8.10
   7  -9 -12   56.82    4.44
   7  -9 -11    9.90    2.91
   7  -9 -10  433.65   23.82
   7  -9 -10  422.67   23.30
   7   9  -9    9.36    4.05
   7  -9  -9    7.44    3.68
   7  -9  -9    8.02    3.22
   7   9  -9    6.09    3.18
   7  -9  -9    7.66    2.01
   7  -9  -9    8.86    3.63
   7   9  -8  202.98   15.44
   7  -9  -8  201.39   12.99
   7   9  -8  172.37   12.82
   7  -9  -8  183.72   13.60
   7  -9  -8  226.38   14.14
   7  -9  -8  184.36   14.30
   7   9  -7   22.16    5.66
   7  -9  -7   13.73    3.56
   7   9  -7   18.44    4.05
   7  -9  -7   17.31    5.09
   7  -9  -7   31.92    6.05
   7  -9  -7   15.82    3.95
   7   9  -6   43.75    6.91
   7   9  -6   40.38    6.34
   7   9  -6   52.32    7.34
   7  -9  -6   41.27    5.14
   7   9  -6   33.87    5.01
   7  -9  -5   14.52    4.89
   7  -9  -5   22.58    5.06
   7   9  -5   15.10    4.97
   7   9  -5   21.03    5.47
   7  -9  -5   15.06    3.36
   7   9  -5   15.69    3.48
   7   9  -5   13.05    4.74
   7   9  -4   28.62    3.78
   7  -9  -4   27.04    5.74
   7   9  -4   28.61    6.12
   7   9  -4   21.96    5.43
   7   9  -4   23.72    5.90
   7   9  -3   11.90    5.20
   7   9  -3    7.87    4.04
   7   9  -3   10.01    3.94
   7  -9  -3    9.69    4.05
   7   9  -3   10.34    6.21
   7  -9  -3    9.51    6.60
   7   9  -3    6.43    2.50
   7   9  -2  502.04   39.31
   7  -9  -2  574.50   39.67
   7  -9  -2  601.33   29.03
   7   9  -2  517.48   28.84
   7  -9  -2  578.26   31.83
   7   9  -2  581.12   31.91
   7   9  -2  544.67   29.61
   7   9  -1   41.47    6.70
   7  -9  -1   39.96    4.40
   7   9  -1   31.97    4.25
  -7   9   1   28.74    7.05
   7  -9  -1   33.48    9.34
   7  -9  -1   23.58    5.38
   7   9  -1   39.44    5.88
   7   9  -1   18.71    7.85
   7  -9  -1   26.88    8.87
  -7   9   0   47.61    9.20
   7  -9   0   55.67    5.31
   7   9   0   49.01    5.29
   7   9   0   53.06   11.13
   7  -9   0   43.34   10.20
   7   9   0   34.66    5.87
   7  -9   0   30.79    5.60
   7  -9   0   54.82    6.48
   7   9   0   38.68    6.52
   7  -9   0   47.66   10.57
  -7   9  -1   14.98    6.20
   7  -9   1   14.57    3.19
   7   9   1   10.49    2.81
   7  -9   1   13.55    6.88
   7   9   1   11.98    3.91
   7  -9   1   15.16    4.27
   7   9   1   11.57    4.57
   7   9   2   58.61    6.25
   7  -9   2   55.64    5.72
  -7   9  -2   59.27   11.23
  -7   9  -2   61.32    5.67
   7  -9   2   52.51    8.82
   7  -9   2   52.41   11.32
   7   9   2   49.82    7.08
   7  -9   2   53.00    6.53
  -7  -9  -2   60.38   10.31
   7  -9   3    2.30    2.44
   7   9   3    5.88    2.91
  -7   9  -3    4.79    4.70
  -7   9  -3    1.67    2.14
   7  -9   3    5.95    4.49
  -7  -9  -3    2.14    3.82
   7  -9   3    1.43    3.08
  -7   9  -4   71.38    6.27
  -7  -9  -4   59.90   10.60
   7  -9   4   48.19    9.40
   7  -9   4   65.73   12.67
   7   9   4   54.90    7.58
   7  -9   4   53.98    5.79
   7   9   4   51.18    6.06
  -7   9  -4   66.39   11.60
   7   9   5    3.58    3.12
  -7   9  -5   -3.24    2.54
  -7  -9  -5    0.60    2.29
   7  -9   5   -0.53    2.29
   7   9   5    0.60    2.62
  -7   9  -6  132.87    8.46
  -7   9  -6  139.39    9.80
   7  -9   6  120.27    8.72
   7   9   6  135.67    9.21
  -7   9  -6  111.56    9.13
  -7  -9  -6  127.29    9.17
   7  -9   7   -0.78    2.01
   7   9   7    1.71    1.91
  -7   9  -7    2.52    2.09
  -7   9  -7    0.37    1.84
  -7   9  -7   -2.12    2.40
  -7   9  -8  121.45    6.05
  -7   9  -8  120.57    5.08
   7   9   8  117.79    5.91
  -7   9  -9    3.90    1.25
   7 -10 -11  182.40   10.83
   7 -10 -10    0.52    2.68
   7 -10 -10    0.62    2.66
   7 -10  -9  206.53   13.44
   7 -10  -9  217.33   14.14
   7  10  -9  197.33   14.83
   7  10  -8   -3.37    4.32
   7 -10  -8    6.52    4.35
   7 -10  -8    6.55    3.35
   7 -10  -8    3.91    3.71
   7  10  -8    8.36    2.87
   7  10  -7  526.69   30.67
   7 -10  -7  481.46   27.65
   7 -10  -7  547.78   28.61
   7  10  -7  477.48   26.90
   7  10  -6   11.63    4.33
   7  10  -6   17.80    3.68
   7  10  -6   18.00    4.93
   7 -10  -6   17.10    4.62
   7  10  -6   21.96    5.60
   7 -10  -5  144.37   12.15
   7  10  -5  107.33    9.26
   7  10  -5  141.65   12.91
   7 -10  -5  139.03   11.54
   7 -10  -4   15.30    4.78
   7  10  -4   20.61    5.29
   7  10  -4   23.89    5.65
   7  10  -4   28.65    6.71
   7  10  -3  450.09   24.32
   7 -10  -3  461.34   26.90
   7  10  -3  453.97   28.90
   7  10  -3  428.88   26.71
   7  10  -3  429.76   27.41
   7  10  -2    3.97    3.55
   7  10  -2    4.74    2.15
   7 -10  -2    4.83    3.55
   7  10  -2   -0.68    2.57
   7  10  -1  463.52   24.84
   7  10  -1  423.11   26.80
   7  10  -1  424.64   23.20
   7 -10  -1  438.33   34.48
   7 -10  -1  499.92   26.72
   7  10  -1  394.97   25.39
   7  10  -1  375.20   32.57
  -7  10   1  440.88   30.31
   7  10   0    7.84    4.59
   7 -10   0   11.57    3.99
  -7  10   0    2.00    4.56
   7  10   0    8.87    2.59
   7 -10   0   10.65    6.41
   7 -10   0   11.24    4.26
   7  10   0   20.95    4.34
   7  10   0   15.68    6.29
   7 -10   1  560.82   29.23
   7  10   1  534.19   30.74
   7  10   1  497.06   27.15
   7 -10   1  439.50   37.40
   7 -10   1  588.91   30.11
   7  10   1  517.59   29.17
  -7  10  -1  459.38   35.25
   7  10   1  438.45   37.41
   7  10   2   -1.05    3.35
   7 -10   2    1.56    2.93
  -7  10  -2    2.29    5.19
   7  10   2    0.59    2.42
  -7  10  -2    4.46    2.49
   7 -10   2    2.78    4.97
   7 -10   2    6.80    3.12
  -7 -10  -2   -2.18    4.62
   7 -10   3   42.80    5.77
   7  10   3   41.55    5.15
  -7  10  -3   74.07   12.28
  -7  10  -3   66.42    5.91
   7 -10   3   30.60    9.43
  -7 -10  -3   37.53    8.92
  -7 -10  -4    4.36    5.24
   7 -10   4    1.22    2.40
  -7  10  -4    2.33    2.24
   7 -10   4    1.97    3.16
   7 -10   4    2.72    5.34
  -7  10  -4    1.21    2.12
   7  10   4    3.23    3.95
   7  10   4    3.99    2.54
   7  10   5  756.08   36.91
   7  10   5  848.92   40.18
  -7  10  -6    2.62    1.75
  -7  10  -6    7.26    3.18
   7  10   6    3.51    2.02
  -7  10  -6    3.06    2.05
  -7  10  -7  102.74    6.71
  -7  10  -7   96.10    7.60
  -7  10  -8    2.05    1.39
  -7  10  -8    1.93    1.78
   7 -11 -11    6.71    2.05
   7 -11 -10 1193.82   55.63
   7 -11 -10 1097.22   54.56
   7  11  -9    1.78    3.19
   7 -11  -9    2.70    3.20
   7 -11  -9    5.19    2.81
   7 -11  -8  126.27   10.18
   7 -11  -8  131.67   11.10
   7 -11  -8  132.05    9.96
   7  11  -8  115.47   11.36
   7 -11  -7    0.77    3.07
   7 -11  -7    2.29    3.24
   7  11  -7    4.74    4.35
   7  11  -6  216.97   16.51
   7  11  -6  247.99   17.94
   7  11  -6  257.95   18.02
   7 -11  -6  223.94   16.32
   7  11  -5    1.28    3.83
   7  11  -5    9.91    4.96
   7 -11  -5    8.24    4.21
   7  11  -4  916.31   51.44
   7  11  -4  964.33   50.20
   7  11  -4  958.36   50.91
   7 -11  -4  907.38   49.25
   7  11  -3   90.82   10.34
   7 -11  -3   93.37    9.77
   7  11  -3   94.53   11.50
   7  11  -3   96.73   10.19
   7  11  -3   95.17    7.98
   7 -11  -2  945.14   48.95
   7  11  -2  896.86   46.89
   7  11  -2  968.80   49.39
   7  11  -1   17.80    5.57
   7 -11  -1   28.05    8.49
   7 -11  -1   22.89    5.02
   7  11  -1   21.41    5.05
   7  11  -1   39.30    5.60
   7  11   0  607.59   35.64
   7 -11   0  699.71   45.32
   7 -11   0  698.80   34.96
  -7  11   0  592.05   40.00
   7  11   0  584.42   33.29
   7  11   0  597.80   34.08
   7 -11   1    9.11    3.64
   7  11   1    7.85    4.75
   7 -11   1    5.44    5.76
   7 -11   1    3.51    3.30
   7  11   1    6.15    3.30
  -7  11  -1    2.21    2.09
  -7  11  -1    6.52    4.60
   7  11   2  362.06   24.28
   7 -11   2  376.99   22.87
  -7 -11  -2  357.96   29.82
  -7  11  -2  369.52   30.30
   7 -11   2  397.86   33.17
  -7  11  -2  450.80   22.25
   7 -11   3    6.34    3.19
  -7  11  -3    5.35    2.70
  -7 -11  -3    2.25    4.77
   7 -11   3   -2.76    4.95
  -7  11  -4  613.31   29.25
   7  11   4  577.28   32.38
   7  11   5    3.58    3.20
  -7  11  -6 1092.55   52.48
  -7  11  -6 1146.71   54.43
  -7  11  -7    1.92    2.33
   7  11   7   -0.48    1.83
  -7  11  -7    0.57    1.33
  -7  11  -8  425.26   21.44
  -7  11  -8  484.68   22.73
   7 -12 -11  239.21   12.50
   7 -12 -10   17.34    3.08
   7 -12 -10   14.46    3.48
   7 -12  -9  104.34    7.71
   7  12  -9   91.64    8.83
   7 -12  -9   87.14    7.88
   7 -12  -8    6.23    3.27
   7  12  -8    1.07    3.84
   7 -12  -8    0.71    3.12
   7 -12  -7   62.21    6.79
   7 -12  -7   40.49    6.69
   7 -12  -7   48.19    6.19
   7  12  -7   44.32    7.50
   7 -12  -6    5.50    4.53
   7  12  -6    2.37    4.03
   7  12  -6   15.45    5.87
   7  12  -5  108.73   11.69
   7 -12  -5  122.54   10.58
   7  12  -5  120.53   12.15
   7  12  -4  111.22   11.52
   7  12  -4   93.65   10.21
   7  12  -3  908.79   48.51
   7 -12  -3  844.99   46.24
   7  12  -3  919.51   47.38
   7  12  -3  868.19   43.55
   7  12  -3  866.65   44.18
   7  12  -2   35.41    5.93
   7  12  -2   16.12    4.03
   7 -12  -2   27.45    5.75
   7  12  -1  563.80   34.16
   7  12  -1  585.45   33.19
   7 -12  -1  596.17   32.97
   7  12  -1  608.38   32.07
   7 -12  -1  551.06   40.98
   7  12   0   11.87    4.76
   7 -12   0   10.80    3.96
   7  12   0    5.00    3.14
   7  12   0   11.27    3.54
   7 -12   0   -2.60    5.51
   7  12   1    0.88    3.21
   7 -12   1    1.66    3.70
   7  12   1   -1.14    4.37
  -7  12  -1    2.31    2.26
   7  12   1   -0.86    3.30
   7 -12   1    2.67    4.78
   7  12   2    2.16    3.86
   7 -12   2    0.78    3.46
  -7  12  -2    3.00    2.63
   7 -12   2    2.71    4.34
  -7 -12  -2    2.28    4.48
   7 -12   3   89.69    8.16
   7  12   3   94.59    8.80
   7 -12   3   67.27   12.94
  -7 -12  -3   85.62   13.23
   7 -12   4   12.04    3.16
  -7  12  -4   19.59    3.54
   7  12   4   11.70    3.90
   7  12   5    6.94    3.43
   7  12   5   15.87    3.93
   7  12   6    1.14    2.33
  -7  12  -6    2.76    2.58
   7  12   7  449.60   22.87
  -7  12  -7  431.87   22.85
   7 -13 -10  259.99   14.29
   7 -13 -10  282.97   15.37
   7 -13  -9   52.08    5.05
   7  13  -9   57.58    6.44
   7 -13  -8  574.50   30.67
   7  13  -8  637.24   34.02
   7 -13  -7    1.97    2.63
   7  13  -7    2.27    3.63
   7 -13  -7   -0.84    3.51
   7 -13  -7    2.16    2.71
   7  13  -6  102.19   10.98
   7  13  -6  109.53   11.11
   7 -13  -6  109.24    9.81
   7  13  -5  116.81   11.91
   7 -13  -5  134.03   10.74
   7  13  -5  107.41   11.70
   7  13  -4 1361.46   69.93
   7  13  -4 1434.87   72.03
   7  13  -4 1331.73   70.59
   7  13  -3    3.87    4.38
   7  13  -3    5.51    4.14
   7  13  -3    1.80    2.20
   7  13  -2  191.70   14.82
   7 -13  -2  215.35   14.93
   7  13  -2  186.81   12.62
   7  13  -2  177.18   12.91
   7  13  -1   13.84    4.71
   7  13  -1   25.96    5.76
   7 -13  -1   29.56    5.36
   7 -13  -1   23.65    6.89
   7  13  -1   18.41    4.40
   7  13   0 1340.34   66.40
   7  13   0 1262.43   65.53
   7 -13   0 1502.49   66.48
   7  13   0 1327.77   68.20
   7  13   1   15.37    4.15
   7  13   1   10.29    4.70
   7 -13   1   15.60    4.91
  -7  13  -1   12.92    3.11
   7  13   1   16.36    4.56
   7 -13   1   10.31    6.22
   7  13   2  489.09   29.68
   7 -13   2  507.23   27.91
  -7  13  -2  536.05   26.99
   7 -13   2  461.53   37.02
  -7 -13  -2  436.84   35.01
   7 -13   3    2.60    2.90
  -7  13  -3    2.94    2.31
   7  13   3    4.10    3.35
   7  13   4  620.32   35.27
  -7  13  -4  718.56   34.53
   7  13   5    3.28    2.94
   7  13   5    5.81    2.89
  -7  13  -6  488.47   25.35
   7  13   6  475.98   25.26
  -7  13  -7   -0.39    1.94
   7 -14 -10    2.32    1.25
   7  14  -9  178.21   14.92
   7 -14  -9  358.04   15.19
   7  14  -8    0.95    3.30
   7 -14  -8    2.43    2.55
   7 -14  -7  222.96   14.87
   7  14  -7  246.23   17.27
   7 -14  -7  239.39   15.20
   7 -14  -7  244.67   14.73
   7  14  -6    1.14    4.45
   7  14  -6   -1.12    3.34
   7  14  -5  827.58   45.37
   7  14  -5  814.78   44.75
   7  14  -4   -1.36    4.87
   7  14  -4   -2.26    4.53
   7  14  -4   -1.28    4.82
   7  14  -3 1861.01   95.41
   7  14  -3 1965.29   90.94
   7  14  -3 1878.73   94.20
   7  14  -2   19.65    5.24
   7  14  -2   27.72    4.72
   7  14  -2   30.88    4.68
   7  14  -1  976.96   52.94
   7  14  -1 1005.58   50.23
   7  14  -1  974.27   51.31
   7 -14   0   28.36    8.10
   7  14   0   26.38    5.17
   7  14   0   23.28    4.84
   7  14   0   24.85    5.79
  -7  14  -1  996.39   45.33
   7  14   1  867.13   46.47
   7  14   1  864.71   46.28
   7 -14   1  874.14   46.30
   7  14   1  900.76   48.54
  -7  14  -2    1.76    2.40
   7  14   2   -1.03    3.88
   7 -14   2   -0.72    3.04
   7  14   3   88.60    8.48
  -7  14  -3   88.56    7.53
   7 -14   3  105.90    8.09
   7  14   4    2.10    2.75
  -7  14  -4    4.16    2.50
   7  14   5  974.73   48.41
   7  14   5  989.15   49.55
  -7  14  -6   23.28    3.36
   7  14   6   21.11    3.25
   7 -15  -9   53.52    4.63
   7 -15  -9   57.57    3.64
   7  15  -8   24.51    4.89
   7 -15  -8   17.92    3.95
   7 -15  -8   25.72    3.47
   7 -15  -7    2.50    2.79
   7  15  -7    4.00    3.67
   7 -15  -7   -0.61    2.47
   7 -15  -7   -0.52    2.58
   7  15  -6  246.59   17.26
   7  15  -6  235.92   17.34
   7  15  -5   11.01    4.58
   7  15  -5   -1.19    4.46
   7  15  -5    6.25    3.82
   7  15  -4   15.26    5.47
   7  15  -4   12.78    4.49
   7  15  -4    6.25    4.82
   7  15  -3    4.17    2.58
   7  15  -3    7.40    4.40
   7  15  -3    7.00    4.89
   7  15  -3    3.79    4.53
   7  15  -2   24.82    4.40
   7  15  -2   41.04    6.64
   7  15  -1   50.70    6.09
   7  15  -1   34.83    6.03
   7  15  -1   49.29    7.95
   7  15   0   93.03   10.16
   7  15   0   96.46    9.00
  -7  15   0   74.69    6.94
   7  15   0  107.98    8.88
   7 -15   1   22.39    4.43
   7  15   1   24.82    5.63
   7  15   1   21.70    4.28
  -7  15  -1   24.16    4.08
   7  15   2   41.00    6.48
   7 -15   2   36.98    5.18
   7 -15   3    4.78    2.41
  -7  15  -3    2.62    2.10
   7  15   3    2.92    2.68
   7  15   4   50.98    5.75
  -7  15  -4   45.97    4.84
   7  15   4   43.64    6.88
   7  15   5    2.58    2.19
   7  15   5    3.31    3.09
  -7  15  -6    3.15    1.87
   7  15   6    0.75    1.44
   7 -16  -9  232.26   13.02
   7  16  -8   -0.73    2.75
   7 -16  -8    5.48    1.83
   7 -16  -8    3.31    2.52
   7 -16  -7  287.66   17.09
   7 -16  -7  312.51   17.93
   7 -16  -7  316.56   18.11
   7  16  -6    7.42    3.57
   7  16  -5  915.31   25.40
   7  16  -5  845.90   25.12
   7  16  -4   12.76    4.95
   7  16  -4    8.26    4.85
   7  16  -4   19.59    4.99
   7  16  -3  834.21   46.01
   7  16  -3  794.15   43.79
   7  16  -3  818.56   45.23
   7  16  -3  832.26   41.08
   7  16  -2   19.03    4.36
   7  16  -2   11.65    3.30
   7  16  -1  350.93   20.48
   7  16  -1  344.81   20.66
   7  16  -1  342.34   22.97
   7  16  -1  359.81   21.71
  -7  16   0    5.14    2.23
   7  16   0    4.61    3.02
   7  16   0   10.94    4.55
   7 -16   0    5.94    3.77
   7  16   0    1.61    2.95
   7 -16   1  809.30   42.84
   7  16   1  833.68   45.13
  -7  16  -1  885.34   42.05
   7 -16   2    1.76    2.45
   7  16   2   -1.79    3.44
  -7  16  -2    2.03    2.22
   7  16   2   -0.73    2.91
   7  16   3  168.99   12.08
  -7  16  -3  189.43   11.35
   7  16   4   23.03    4.01
  -7  16  -4   24.95    3.36
   7  16   4   21.92    4.85
   7  16   5  641.81   31.72
   7  16   5  593.17   30.68
   7  17  -8  116.42    8.51
   7 -17  -8  112.32    7.33
   7 -17  -8   92.64    6.01
   7  17  -7    9.43    3.67
   7 -17  -7    1.94    2.21
   7 -17  -7    5.50    1.94
   7 -17  -6   17.91    3.83
   7  17  -6   22.94    4.50
   7 -17  -6   26.41    3.58
   7  17  -5   13.86    4.65
   7  17  -5    9.40    4.67
   7  17  -4  933.53   47.72
   7  17  -4  881.51   47.70
   7  17  -4  910.45   48.39
   7  17  -3    5.74    2.22
   7  17  -3    6.49    3.87
   7  17  -3    8.25    5.00
   7  17  -3    3.37    4.13
   7  17  -2   57.05    5.93
   7  17  -2   60.02    7.30
   7  17  -1    1.08    4.31
   7  17  -1   -0.66    2.24
   7  17  -1   -0.82    2.99
   7  17   0  209.81   13.42
   7  17   0  189.94   13.30
   7 -17   0  179.25   12.89
   7  17   0  227.82   15.54
   7  17   1    3.71    3.64
   7 -17   1    5.46    2.80
  -7  17  -1    5.60    2.34
   7  17   2   92.54    8.52
   7 -17   2   78.24    6.94
  -7  17  -2   89.37    6.75
   7  17   2   86.70    7.61
   7  17   3   -0.58    2.08
  -7  17  -3    0.80    1.74
  -7  17  -4  210.32   12.28
   7  17   4  234.09   13.37
   7  17   4  239.54   14.80
  -7  17  -4  220.66   11.88
  -7  17  -5    5.31    1.46
   7  17   5    5.66    2.19
  -7  17  -5    7.91    2.03
   7  18  -8   -0.44    2.10
   7 -18  -8    2.79    1.70
   7 -18  -7    9.20    1.75
   7 -18  -7   10.05    2.56
   7 -18  -6   24.05    3.50
   7 -18  -6   24.85    3.70
   7 -18  -6   18.87    2.95
   7  18  -5  133.70   11.26
   7  18  -5  152.10   11.67
   7  18  -4   22.22    4.87
   7  18  -4   23.31    5.29
   7  18  -4   15.78    3.80
   7  18  -3   43.54    6.22
   7  18  -3   31.56    5.76
   7  18  -3   48.15    7.00
   7  18  -2   19.54    3.49
   7  18  -2   31.45    6.23
   7  18  -2   23.08    4.85
   7  18  -1   34.06    4.54
   7  18  -1   31.30    6.10
   7 -18  -1   31.26    4.87
   7  18  -1   38.71    5.48
   7  18   0    1.24    2.48
   7  18   0    0.92    3.37
   7 -18   0    4.16    2.81
   7  18   0    1.87    2.39
  -7  18  -1   29.16    3.61
   7  18   1   30.16    4.34
   7 -18   1   31.27    4.26
   7  18   1   29.67    5.33
  -7  18  -2    2.61    1.69
   7  18   2    6.71    2.58
   7  18   2    2.05    2.79
   7 -18   2    4.97    2.10
   7  18   3  134.19   10.73
   7  18   4   28.77    4.27
   7  19  -7   19.30    3.32
   7 -19  -7   14.69    2.41
   7 -19  -6  327.75   16.11
   7 -19  -6  273.51   14.71
   7  19  -5   50.57    5.95
   7  19  -5   46.46    5.75
   7 -19  -5   33.20    4.15
   7 -19  -5   35.90    4.26
   7 -19  -5   36.39    3.73
   7  19  -4  383.23   22.79
   7  19  -4  379.45   22.16
   7  19  -3   -0.89    3.11
   7  19  -3    2.19    2.86
   7  19  -3    0.85    3.10
   7  19  -2  680.73   33.51
   7 -19  -2  619.31   33.92
   7  19  -2  663.83   36.33
   7  19  -2  735.00   37.31
   7  19  -2  675.53   35.01
   7  19  -1   41.19    4.55
   7  19  -1   32.93    5.59
   7 -19  -1   30.92    4.47
   7  19  -1   32.65    5.81
   7  19  -1   32.84    4.75
   7  19   0  730.28   34.72
   7 -19   0  621.96   33.98
   7  19   0  714.74   36.56
   7  19   1   26.92    3.89
   7  19   1   26.10    4.64
   7 -19   1   26.53    3.63
   7  19   2  356.49   20.07
   7  19   2  415.49   22.59
   7  19   3   23.50    4.29
   7  19   4  462.41   23.89
   7 -20  -6   21.09    2.55
   7 -20  -5   71.12    5.52
   7  20  -5   78.60    6.89
   7 -20  -4   -0.78    2.20
   7  20  -4   -0.62    2.62
   7  20  -4    1.36    2.67
   7 -20  -4    1.75    1.92
   7  20  -3  382.96   15.94
   7  20  -3  406.09   17.32
   7  20  -2    4.63    3.27
   7  20  -2    3.41    2.57
   7  20  -2    0.76    2.73
   7 -20  -2    0.48    2.17
   7  20  -1   71.75    7.44
   7  20  -1   57.44    5.65
   7 -20  -1   64.31    5.81
   7  20   0    3.99    3.19
   7  20   0    4.03    2.99
   7 -20   0    2.46    1.94
   7  20   1  148.03   11.14
   7  20   1  144.37   10.17
   7  20   2    1.89    2.52
   7  20   3   13.50    3.00
   7  21  -5    4.80    2.08
   7 -21  -4   76.54    5.21
   7  21  -4   74.23    6.25
   7 -21  -3    1.21    1.62
   7  21  -3    0.93    1.86
   7  21  -3    0.59    2.15
   7  21  -2  123.07    9.11
   7  21  -2  121.32    8.27
   7  21  -2  132.76    9.52
   7  21  -1   13.63    3.27
   7  21  -1   22.70    3.97
   7  21   0  226.94   14.52
   7  21   0  241.27   14.12
   7  21   2  367.52   19.73
   7  22   0   17.15    2.71
   8   0 -12  853.25   41.94
   8   0 -11   16.24    4.03
   8   0 -11   17.07    4.14
   8   0 -10  878.82   43.46
   8   0 -10  959.02   47.19
   8   0 -10  950.93   46.38
   8   0  -9    9.16    4.08
   8   0  -9   12.22    2.49
   8   0  -9   11.35    4.45
   8   0  -8 2120.12  100.01
   8   0  -8 2062.95  100.68
   8   0  -7   62.41    6.73
   8   0  -7   55.67    7.97
   8   0  -7   52.85    6.94
   8   0  -7   44.63    6.35
   8   0  -6   72.29    7.21
   8   0  -6   73.20    9.27
   8   0  -6   60.39    7.62
   8   0  -5   16.39    3.91
   8   0  -5   25.24    5.08
   8   0  -5   14.20    4.90
   8   0  -4 1277.44   82.14
   8   0  -4 1436.74   66.41
   8   0  -4 1335.86   65.31
   8   0  -4 1328.56   67.35
   8   0  -4 1287.63   68.54
   8   0  -3    0.74    3.19
   8   0  -3   -3.46    6.79
   8   0  -2  425.05   23.75
   8   0  -2  407.04   25.78
   8   0  -2  385.39   26.18
   8   0  -1   18.95    4.27
   8   0  -1   12.06    4.09
   8   0  -1   24.43    5.99
   8   0  -1   10.74    7.05
   8   0   0 4658.33  209.95
   8   0   0 4365.20  211.69
   8   0   0 4504.53  212.79
   8   0   1    2.40    3.13
   8   0   1   -1.17    3.96
   8   0   2  229.18   23.31
   8   0   2  241.16   16.23
   8   0   2  261.76   18.37
   8   0   3   16.30    4.10
   8   0   3   23.79    7.37
   8   0   4 1153.89   69.44
  -8   0  -5   36.92    8.62
   8   0   5   23.15    7.81
  -8   0  -6  279.12   17.65
  -8   0  -7    0.67    2.52
  -8   0  -8 1427.44   68.38
   8   0   8 1428.28   67.87
   8   0   9    0.65    1.64
   8   1 -12    0.95    2.46
   8  -1 -12    1.45    2.29
   8  -1 -11   85.13    6.54
   8   1 -11   62.84    5.83
   8   1 -10    0.71    3.28
   8  -1 -10    4.99    3.65
   8   1 -10    0.34    1.65
   8  -1 -10    0.64    1.12
   8  -1 -10    5.63    4.32
   8   1  -9  177.91   10.88
   8  -1  -9  176.02   10.77
   8   1  -9  222.41   14.03
   8  -1  -9  222.55   14.01
   8  -1  -9  209.27   14.50
   8   1  -8   29.07    5.29
   8  -1  -8   38.08    5.65
   8   1  -8   22.77    5.63
   8  -1  -8   44.21    6.34
   8   1  -7   30.23    4.86
   8  -1  -7   26.91    4.63
   8   1  -7   21.61    4.54
   8  -1  -7   11.37    4.27
   8   1  -7   14.12    5.16
   8  -1  -7   29.81    5.43
   8  -1  -6    4.77    3.52
   8   1  -6    8.09    3.54
   8   1  -6    7.65    3.02
   8  -1  -6   11.20    3.80
   8  -1  -6   19.18    5.85
   8   1  -6    7.17    4.50
   8   1  -5   15.59    4.45
   8  -1  -5   13.33    4.35
   8  -1  -5    8.38    4.64
   8   1  -5   14.00    4.52
   8   1  -5   16.22    3.42
   8  -1  -5   12.88    3.63
   8  -1  -4   25.65    5.41
   8  -1  -4   29.45    5.86
   8   1  -4   22.72    5.36
   8   1  -4   25.03    4.06
   8  -1  -4   23.83    9.12
   8  -1  -4   35.84    5.25
   8  -1  -3   70.44    6.89
   8   1  -3   64.77    8.99
   8   1  -3   53.44    7.80
   8   1  -3   57.37    5.68
   8  -1  -3   76.38    7.26
   8  -1  -2   -1.14    3.42
   8   1  -2    2.19    3.28
   8   1  -2    1.25    3.59
   8  -1  -2    0.74    2.85
   8  -1  -2   -6.92    8.76
   8  -1  -2   -0.73    2.87
   8  -1  -1  264.49   29.54
   8  -1  -1  318.88   19.02
   8  -1  -1  333.73   21.45
   8   1  -1  321.90   21.06
   8   1  -1  329.65   21.77
   8  -1  -1  266.03   20.72
   8  -1   0   20.01    4.79
   8   1   0   12.47    4.98
   8  -1   0   29.07    6.25
   8   1   0   10.59    5.38
   8  -1   1  498.39   27.82
   8  -1   1  512.21   36.79
   8   1   1  474.64   28.80
   8   1   1  522.19   30.40
   8  -1   2    1.60    3.08
   8  -1   2    7.54    4.93
   8   1   2    2.64    4.73
   8   1   2    6.71    3.90
   8  -1   3  171.76   12.39
   8  -1   3  152.72   18.81
   8   1   3  156.37   18.99
   8   1   3  157.06   13.33
   8  -1   4    2.60    4.17
   8   1   4    5.37    5.69
  -8   1  -4    6.98    5.27
   8  -1   5  157.08   19.03
  -8   1  -5  209.22   20.24
  -8  -1  -5  194.74   19.57
  -8  -1  -6   13.64    3.98
  -8  -1  -7    4.65    2.92
   8  -1   8   15.38    3.19
  -8  -1  -8    3.75    2.60
   8  -1   9  173.59   10.01
   8   2 -12  331.56   18.11
   8   2 -11   -0.61    2.73
   8   2 -11   -0.29    0.78
   8   2 -10  440.96   14.69
   8  -2 -10  442.45   15.51
   8  -2 -10  415.20   14.33
   8  -2  -9    3.37    3.99
   8   2  -9   -0.75    3.25
   8   2  -9   -1.48    1.77
   8  -2  -9    2.29    3.24
   8  -2  -8  259.06   16.72
   8   2  -8  230.54   13.37
   8   2  -8  257.15   16.06
   8  -2  -8  275.99   16.57
   8   2  -8  228.25   17.18
   8  -2  -7    1.63    3.25
   8   2  -7   -1.18    3.91
   8   2  -7    4.34    3.33
   8  -2  -7    3.93    3.50
   8   2  -7    0.81    2.89
   8  -2  -7    6.83    3.99
   8   2  -6  436.55   26.70
   8   2  -6  418.10   23.47
   8  -2  -6  483.78   24.73
   8  -2  -6  414.16   25.27
   8   2  -6  367.08   23.95
   8   2  -5   -0.61    2.02
   8  -2  -5    3.68    3.00
   8  -2  -5    2.42    4.32
   8   2  -5   -1.15    3.57
   8   2  -5    0.89    3.36
   8  -2  -5   -0.97    3.47
   8   2  -4  101.92   16.76
   8  -2  -4   86.69   15.71
   8   2  -4   75.37    6.66
   8   2  -4   73.66    9.70
   8   2  -4   64.78    8.58
   8  -2  -4   88.43    9.76
   8  -2  -4   71.24    7.38
   8   2  -4   80.70    7.75
   8  -2  -4   79.19    8.47
   8  -2  -4   78.28    7.68
   8   2  -3   -2.19    3.39
   8   2  -3   -1.29    3.56
   8  -2  -3   -1.52    2.91
   8  -2  -3   -2.14    2.96
   8   2  -3   -0.75    3.18
   8  -2  -3   -3.33    7.05
   8  -2  -2 1000.56   54.64
   8   2  -2  979.80   53.87
   8   2  -2  985.76   54.86
   8  -2  -2 1062.29   52.27
   8  -2  -2 1051.73   51.95
   8   2  -2 1086.44   52.36
   8  -2  -2 1094.31   68.67
   8  -2  -1   -1.46    2.98
   8   2  -1    0.76    3.06
   8   2  -1    1.05    4.36
   8   2  -1   -1.19    4.16
   8  -2  -1    3.46    7.33
   8  -2   0 1570.48   75.10
   8  -2   0 1594.27   74.90
   8   2   0 1516.08   74.85
   8   2   0 1423.96   76.14
   8   2   0 1570.72   77.75
   8  -2   1   28.08    7.81
   8  -2   1   25.54    5.09
   8   2   1   24.19    5.38
   8   2   1   26.36    5.84
   8  -2   2  701.36   48.70
   8  -2   2  743.57   39.66
   8   2   2  822.60   42.46
   8  -2   3   15.14    7.30
   8   2   3    2.75    6.25
   8  -2   3   20.35    4.42
   8   2   3    9.37    3.95
   8  -2   4   81.52   12.98
  -8   2  -4   64.10   11.70
  -8   2  -5    3.86    2.22
  -8   2  -5    2.27    4.45
   8  -2   5    2.49    3.45
   8   2   5    2.62    4.68
  -8  -2  -6  254.57   16.27
  -8  -2  -7   -0.65    2.54
  -8   2  -8  426.52   22.25
  -8  -2  -8  430.21   22.24
   8  -2   8  378.92   21.39
   8  -2   9    9.64    2.04
   8   3 -11  411.93   15.93
   8   3 -11  164.63   10.90
   8  -3 -10   21.87    4.83
   8   3 -10   22.30    4.90
   8   3 -10   22.39    4.23
   8   3 -10   20.26    2.96
   8  -3  -9  710.59   35.56
   8   3  -9  765.85   36.33
   8   3  -9  682.55   34.87
   8  -3  -9  652.73   33.59
   8  -3  -9  711.26   35.23
   8   3  -9  610.38   32.05
   8   3  -9  558.77   34.36
   8  -3  -8   38.15    6.06
   8   3  -8   28.74    5.53
   8  -3  -8   44.06    5.17
   8   3  -8   28.74    3.48
   8   3  -8   41.65    5.67
   8  -3  -8   36.44    5.67
   8   3  -8   30.49    6.35
   8  -3  -7  181.57   12.88
   8   3  -7  186.11   13.24
   8  -3  -7  165.42   11.83
   8   3  -7  166.01   14.43
   8   3  -7  179.67   12.34
   8  -3  -7  171.10   12.64
   8  -3  -7  165.93   13.48
   8   3  -6    9.68    3.31
   8  -3  -6    6.37    3.50
   8   3  -6    5.88    4.32
   8  -3  -6    6.98    3.58
   8   3  -6    0.81    2.60
   8  -3  -6    6.14    2.79
   8   3  -5  138.40   10.02
   8   3  -5  163.33   14.02
   8   3  -5  142.18   12.96
   8  -3  -5  129.13   11.78
   8   3  -5  139.21   11.32
   8  -3  -5  170.47   11.62
   8  -3  -4    8.59    3.66
   8   3  -4   10.49    4.70
   8  -3  -4    3.52    3.40
   8   3  -4    9.80    3.73
   8   3  -4    7.00    6.87
   8  -3  -4    3.26    5.84
   8  -3  -4    9.84    4.25
   8  -3  -3  229.41   15.78
   8   3  -3  259.61   27.88
   8  -3  -3  195.24   24.31
   8   3  -3  259.83   18.95
   8   3  -3  227.92   17.26
   8  -3  -3  249.95   15.68
   8   3  -3  280.27   16.43
   8  -3  -2    1.56    3.25
   8   3  -2    7.12    6.37
   8  -3  -2    3.31    6.50
   8   3  -2   -3.16    3.27
   8  -3  -2   18.97    3.90
   8   3  -2   15.85    3.88
   8   3  -1 2088.73  120.04
   8  -3  -1 2211.39  120.28
   8   3  -1 2015.37  103.80
   8   3  -1 2147.10  105.36
   8  -3  -1 2146.44  102.00
   8   3  -1 2253.82  102.61
   8   3   0   16.35    4.15
   8  -3   0   17.70    4.07
   8  -3   0   16.68    4.60
   8   3   0   20.97    5.47
   8   3   0   11.67    5.17
   8  -3   1 1542.73   73.71
   8   3   1 1555.97   74.02
   8   3   1 1443.10   74.72
   8   3   1 1491.03   76.28
   8  -3   1 1506.06   83.35
   8  -3   2   44.94    5.85
   8   3   2   42.82    5.86
   8   3   2   36.63    6.61
   8  -3   2   35.84    8.96
   8  -3   3   66.04    6.80
   8   3   3   60.74    7.10
   8   3   3   51.94    7.40
  -8   3  -4    4.82    5.13
   8  -3   4   17.44    6.63
   8   3   4   15.53    4.42
  -8   3  -4   11.97    2.95
  -8   3  -5  115.55    8.40
  -8   3  -6    4.42    2.90
  -8  -3  -6   11.53    3.47
  -8   3  -6    5.21    2.19
  -8   3  -7   84.65    7.82
  -8  -3  -7  110.29    8.42
  -8   3  -8    2.04    2.04
  -8  -3  -8    3.47    2.28
   8  -3   8    3.82    1.99
   8   3   8    3.95    2.02
   8  -3   9  813.77   39.12
   8   3   9  833.35   39.24
   8  -4 -12    1.75    2.16
   8  -4 -11   -2.90    2.71
   8   4 -11    0.56    2.59
   8  -4 -10   46.68    6.19
   8   4 -10   45.39    6.28
   8   4 -10   57.90    6.37
   8   4 -10   48.19    4.41
   8  -4  -9   -0.79    3.33
   8   4  -9   -0.84    3.54
   8  -4  -9    2.50    2.74
   8   4  -9    1.92    2.15
   8   4  -9    3.66    2.55
   8   4  -9    1.69    2.70
   8  -4  -8  485.71   26.45
   8   4  -8  497.39   26.76
   8  -4  -8  455.96   25.12
   8   4  -8  448.19   25.40
   8  -4  -8  475.30   26.17
   8   4  -8  432.53   23.11
   8   4  -8  438.84   27.47
   8   4  -7   16.71    4.38
   8  -4  -7   13.79    3.55
   8  -4  -7   10.20    4.12
   8   4  -7   10.65    4.49
   8   4  -7   16.44    3.85
   8  -4  -7   16.40    4.45
   8   4  -6  238.96   14.19
   8  -4  -6  250.68   15.68
   8   4  -6  222.90   16.78
   8  -4  -6  228.39   14.58
   8   4  -5   42.86    7.27
   8   4  -5   43.82    7.92
   8  -4  -5   44.21    7.10
   8   4  -5   32.96    5.49
   8  -4  -5   40.08    5.73
   8   4  -4  650.51   37.99
   8   4  -4  632.87   48.75
   8  -4  -4  566.89   46.24
   8  -4  -4  660.87   34.79
   8  -4  -4  653.05   34.07
   8   4  -4  650.85   34.43
   8   4  -3    2.13    3.42
   8   4  -3    3.85    3.56
   8   4  -3    3.47    6.80
   8  -4  -3   -3.18    6.73
   8  -4  -3    4.00    3.68
   8  -4  -3    4.08    3.23
   8   4  -3    4.45    3.03
   8   4  -2  158.46   13.38
   8   4  -2  133.69   20.59
   8  -4  -2  151.95   20.99
   8  -4  -2  186.32   12.87
   8  -4  -2  174.61   12.12
   8   4  -2  176.34   12.42
   8   4  -1    6.08    3.72
   8   4  -1    3.59    4.49
   8   4  -1   -3.57    8.56
   8  -4  -1   -3.31    8.38
   8  -4  -1    7.69    3.58
   8   4  -1    2.26    3.19
   8  -4   0  186.84   13.38
   8   4   0  216.52   14.13
   8  -4   0  223.54   14.68
   8   4   0  210.50   15.26
   8   4   0  182.00   15.42
   8  -4   1    6.59    5.57
   8  -4   1    3.66    3.05
   8   4   1   10.16    3.55
   8  -4   1    4.01    3.70
   8   4   1    4.70    3.11
   8   4   1    6.92    4.13
   8   4   2   69.63    7.76
   8   4   2   75.85    9.15
   8  -4   2   69.86   11.85
   8  -4   2   87.64    7.85
   8   4   2   77.05    7.78
   8  -4   3   -2.41    6.10
   8   4   3   -2.09    3.44
  -8   4  -3    1.52    1.86
   8  -4   3   -2.19    3.41
   8   4   3   -0.80    3.05
  -8   4  -3   -2.43    5.84
   8  -4   4   92.37   13.53
   8  -4   4   68.69    7.22
   8   4   4   84.01    7.92
  -8   4  -4   82.45    6.77
   8   4   4   78.90    8.49
  -8   4  -5    5.19    2.54
  -8   4  -6    5.71    3.07
  -8  -4  -6    0.69    2.71
  -8   4  -6    1.44    2.11
   8  -4   7    7.78    2.89
   8   4   7    3.26    2.59
  -8   4  -7    9.80    3.30
  -8  -4  -7    9.49    3.37
   8  -4   8  104.45    7.30
   8   4   8   98.67    7.35
  -8   4  -8  115.24    7.99
  -8  -4  -8  115.83    8.00
  -8   4  -9    9.87    1.50
   8  -4   9   13.83    1.96
   8   4   9   12.64    2.05
   8  -5 -12   12.91    2.71
   8   5 -11  660.11   33.18
   8  -5 -11  643.81   33.30
   8  -5 -10    6.08    3.22
   8   5 -10    9.52    3.91
   8  -5 -10    7.35    3.69
   8   5 -10   11.61    3.70
   8   5  -9  400.74   21.70
   8  -5  -9  384.67   21.81
   8   5  -9  385.54   22.15
   8  -5  -9  347.97   20.85
   8   5  -9  335.18   21.84
   8  -5  -8   12.64    3.58
   8  -5  -8    6.22    3.81
   8   5  -8    5.84    3.43
   8   5  -8   13.38    3.32
   8   5  -8   15.54    4.72
   8  -5  -7  648.05   35.93
   8   5  -7  687.77   36.53
   8  -5  -7  705.87   36.08
   8   5  -7  675.47   35.37
   8   5  -7  680.19   38.63
   8  -5  -7  722.93   37.02
   8   5  -6    1.16    2.42
   8   5  -6    2.32    3.60
   8  -5  -6    2.24    2.92
   8  -5  -6    3.10    3.51
   8   5  -5  332.69   22.14
   8   5  -5  373.62   23.72
   8  -5  -5  323.89   21.49
   8   5  -5  318.90   19.94
   8  -5  -5  346.87   20.61
   8   5  -4   -1.32    3.96
   8  -5  -4    0.67    2.70
   8   5  -4    0.73    3.16
   8   5  -4    3.39    6.65
   8  -5  -4    3.11    5.56
   8  -5  -4   -0.82    2.94
   8  -5  -3  257.88   16.38
   8   5  -3  231.88   18.16
   8   5  -3  237.14   17.16
   8  -5  -3  247.76   15.24
   8   5  -3  239.67   15.48
   8   5  -3  231.88   26.56
   8  -5  -3  229.57   25.32
   8  -5  -3  223.64   16.72
   8  -5  -2   15.53    4.34
   8   5  -2   13.84    7.88
   8  -5  -2   12.62    8.43
   8  -5  -2   21.57    4.03
   8   5  -2   32.41    4.47
   8   5  -2   16.57    4.63
   8   5  -1 1224.83   76.14
   8  -5  -1 1170.06   73.83
   8  -5  -1 1237.64   58.49
   8   5  -1 1191.33   58.70
   8   5  -1 1198.99   61.99
   8   5  -1 1087.28   60.03
   8  -5   0    1.40    2.86
   8   5   0    5.28    3.36
   8  -5   0    5.73    3.77
   8   5   0    5.96    4.27
   8   5   0    4.87    3.74
   8  -5   1  259.90   24.41
   8  -5   1  324.01   18.85
   8   5   1  313.69   19.07
   8  -5   1  334.33   19.65
   8   5   1  296.93   19.70
   8   5   1  316.79   21.28
   8   5   2   -1.70    2.80
   8   5   2   -2.25    4.03
   8  -5   2    2.25    3.60
   8  -5   2    2.93    4.69
   8  -5   2    0.71    2.90
   8   5   2    3.11    2.98
  -8   5  -2   -2.36    6.25
   8  -5   3  860.79   44.40
   8   5   3  941.47   45.38
  -8   5  -3  797.48   53.64
   8  -5   3  866.07   57.12
   8  -5   3  777.89   53.01
   8   5   3  884.58   46.86
  -8   5  -3  893.45   43.48
   8  -5   4    2.04    2.72
   8   5   4   -0.75    3.30
   8  -5   4    4.72    4.63
   8  -5   4    2.77    4.96
   8   5   4    3.70    3.22
  -8   5  -4   -0.55    2.32
   8  -5   5   46.84    5.60
   8   5   5   49.93    5.95
  -8   5  -5   47.98    5.24
  -8   5  -6    8.86    3.07
  -8  -5  -6   11.79    3.42
   8  -5   6   10.37    3.09
   8   5   6   11.79    3.43
  -8   5  -6    6.79    2.40
   8  -5   7  496.13   26.43
   8   5   7  525.61   26.82
  -8   5  -7  553.97   26.27
  -8   5  -7  489.18   26.99
  -8  -5  -7  495.48   26.93
  -8   5  -8    7.52    2.22
  -8  -5  -8   13.16    2.57
   8  -5   8    7.02    1.96
   8   5   8    7.89    2.05
   8  -5   9  304.63   14.76
   8   5   9  284.99   14.80
   8  -6 -12  257.43   14.11
   8  -6 -11   10.36    3.11
   8  -6 -10 1248.28   59.27
   8  -6 -10 1189.73   58.97
   8   6 -10 1169.57   59.26
   8   6 -10 1226.04   58.83
   8   6  -9   58.09    7.02
   8  -6  -9   69.38    7.05
   8   6  -9   54.33    6.86
   8  -6  -9   67.70    6.89
   8   6  -9   70.14    6.89
   8  -6  -9   51.16    6.25
   8   6  -8  512.12   30.13
   8   6  -8  506.00   27.36
   8  -6  -8  519.82   28.00
   8   6  -8  503.97   28.20
   8  -6  -8  493.51   27.70
   8   6  -7   55.39    8.00
   8  -6  -7   47.88    6.30
   8  -6  -7   56.24    6.40
   8   6  -7   55.98    6.68
   8   6  -7   44.63    5.30
   8  -6  -6 1044.43   54.66
   8  -6  -6 1041.98   52.62
   8   6  -6 1063.38   55.45
   8   6  -6 1046.49   55.29
   8  -6  -5    2.48    3.04
   8   6  -5    2.59    4.28
   8   6  -5    3.40    4.15
   8  -6  -4  115.40    9.92
   8   6  -4  110.90   11.77
   8  -6  -4  100.76   10.36
   8   6  -4  112.54   17.86
   8  -6  -4  108.69   17.45
   8   6  -3   68.63    6.12
   8  -6  -3   67.22    7.57
   8   6  -3   54.67    7.85
   8   6  -3   61.68    8.76
   8  -6  -3   76.88    7.01
   8   6  -3   78.32    7.34
   8   6  -3   50.02   12.61
   8  -6  -3   78.77   15.26
   8  -6  -3   66.78    8.37
   8  -6  -2  914.56   46.15
   8   6  -2  844.39   46.99
   8  -6  -2  869.41   44.70
   8   6  -2  919.32   45.36
   8   6  -2  836.30   59.77
   8  -6  -2  930.84   59.81
   8  -6  -2  906.66   47.51
   8   6  -1    3.45    9.99
   8  -6  -1    3.17    8.04
   8   6  -1   16.12    5.47
   8   6  -1   15.06    4.66
   8  -6  -1   19.42    3.73
   8   6  -1   19.68    4.05
   8   6   0  736.22   40.35
   8   6   0  704.62   41.69
   8  -6   0  759.87   38.57
   8   6   0  760.47   39.01
   8   6   0  703.33   53.39
   8  -6   0  747.68   53.02
   8  -6   0  779.07   39.81
  -8   6  -1   11.14    5.92
   8  -6   1    8.93    3.08
   8   6   1    7.50    3.19
   8  -6   1   11.39    4.28
   8   6   1    7.16    4.49
   8   6   1    2.78    3.07
   8  -6   1   16.05    5.34
   8  -6   1    2.95    5.28
   8  -6   2  860.11   44.23
   8   6   2  899.02   44.94
  -8   6  -2  865.94   54.43
   8  -6   2  931.74   45.33
   8  -6   2  784.02   52.21
   8   6   2  857.28   45.22
   8   6   2  880.14   47.39
   8  -6   3   -0.67    2.88
   8   6   3   -1.50    3.18
  -8   6  -3   -2.45    6.49
   8  -6   3    2.25    3.61
   8  -6   3    2.88    5.64
   8   6   3    5.32    4.17
   8   6   4  197.92   14.66
   8  -6   4  159.94   20.51
   8  -6   4  184.83   19.66
  -8   6  -4  212.67   12.84
   8  -6   4  199.40   13.01
   8   6   4  208.99   13.69
  -8   6  -4  159.37   19.29
  -8   6  -5   14.05    3.29
   8  -6   5   18.57    3.67
   8   6   5   18.63    3.73
  -8   6  -6  296.08   18.39
  -8  -6  -6  327.39   18.59
  -8   6  -6  365.42   18.05
   8  -6   6  304.29   17.84
   8   6   6  296.92   18.03
  -8   6  -7   14.56    3.11
  -8  -6  -7    4.10    2.21
   8  -6   7   12.05    2.83
   8   6   7    9.78    2.75
  -8   6  -7   10.92    2.58
   8  -6   8  482.66   24.20
   8   6   8  477.92   24.36
  -8   6  -8  501.61   23.72
   8  -7 -12   22.90    2.82
   8  -7 -11   57.05    5.43
   8  -7 -10    2.42    2.91
   8  -7  -9    8.01    3.21
   8  -7  -9    1.97    2.88
   8   7  -9    5.03    3.05
   8   7  -9    1.77    3.00
   8  -7  -9    1.41    3.39
   8   7  -9    7.75    3.06
   8  -7  -8   18.45    4.32
   8  -7  -8   24.58    4.62
   8   7  -8   19.06    4.33
   8   7  -8   13.35    4.63
   8  -7  -8   24.43    5.32
   8   7  -8   24.15    4.01
   8  -7  -7  455.54   24.93
   8   7  -7  449.99   25.24
   8   7  -7  419.82   27.31
   8  -7  -6  126.94    9.66
   8   7  -6  126.90    9.96
   8  -7  -6  114.94    9.95
   8   7  -6  114.76   11.46
   8   7  -6  113.71   11.47
   8  -7  -5  137.96   12.41
   8  -7  -5  152.02   11.60
   8   7  -5  122.76   12.69
   8   7  -5  152.42   12.93
   8  -7  -4    4.22    4.30
   8   7  -4    1.11    4.18
   8   7  -4   -1.36    4.34
   8  -7  -4    0.86    3.23
   8   7  -3  170.95   11.25
   8  -7  -3  184.01   11.96
   8   7  -3  182.28   12.29
   8  -7  -3  159.91   12.75
   8  -7  -3  153.10   13.45
   8   7  -3  186.16   15.58
   8   7  -3  187.19   14.50
   8   7  -3  152.24   21.52
   8  -7  -3  141.50   19.57
   8   7  -2    2.56    2.35
   8  -7  -2    4.26    3.86
   8   7  -2    5.24    3.56
   8  -7  -2    5.12    2.81
   8   7  -2    3.49    2.80
  -8   7   2    1.76    3.44
   8   7  -2   -6.58   10.20
   8  -7  -2   -3.00    8.31
   8  -7  -2   -1.06    4.06
   8  -7  -1  269.03   17.81
   8   7  -1  283.09   18.88
   8   7  -1  275.33   20.32
  -8   7   1  250.91   22.47
   8  -7  -1  278.37   16.81
   8   7  -1  303.44   17.52
   8   7  -1  255.60   28.69
   8  -7  -1  227.44   26.48
   8  -7  -1  290.31   19.31
   8   7   0   11.26    5.31
   8   7   0    7.80    4.22
   8   7   0    3.42    7.26
   8  -7   0    6.27    7.53
  -8   7   0    6.26    5.03
   8  -7   0   11.86    3.56
   8   7   0    6.47    3.17
   8  -7   0    9.21    4.25
  -8   7  -1    6.69    5.36
   8  -7   1    3.96    2.81
   8   7   1    3.65    2.75
   8  -7   1   11.80    6.68
   8   7   1    1.22    4.39
   8   7   1    9.25    3.92
   8  -7   1    8.19    3.77
   8   7   2   -0.73    2.68
  -8   7  -2    4.71    5.66
   8  -7   2    1.30    2.44
   8  -7   2    2.05    3.66
   8   7   2    3.51    4.09
   8  -7   2    1.56    3.53
   8  -7   3   15.04    5.77
   8  -7   3   25.81    9.22
   8  -7   3   25.83    4.34
   8   7   3   18.67    4.36
  -8   7  -3   29.21    8.31
   8   7   3   12.95    4.74
   8  -7   4   -0.60    2.67
   8   7   4    1.36    3.40
  -8   7  -4   -2.43    3.89
  -8   7  -4    3.46    2.73
   8   7   4   -1.88    3.45
  -8   7  -5   20.39    3.89
  -8  -7  -5    8.95    3.13
   8  -7   5    9.90    3.01
   8   7   5   18.58    3.88
  -8   7  -5   13.06    3.11
  -8   7  -6   -0.60    2.14
  -8  -7  -6   -2.25    2.54
  -8   7  -6    1.44    2.14
   8  -7   6    0.96    2.23
   8   7   6   -0.53    2.16
  -8   7  -7  142.31    7.94
   8  -7   7  129.37    8.42
   8   7   7  135.04    8.71
  -8   7  -7  132.84    8.53
  -8   7  -7  125.15    8.94
  -8  -7  -7  123.90    8.80
  -8   7  -8   -0.57    1.06
   8   7   8    0.27    1.36
   8  -7   8    0.24    1.21
   8  -8 -12  540.48   26.20
   8  -8 -11    2.98    2.19
   8  -8 -10 1231.23   59.49
   8  -8 -10 1230.85   59.57
   8  -8  -9    4.77    2.74
   8   8  -9    3.94    3.07
   8  -8  -9   -1.32    3.03
   8   8  -9   -1.75    2.98
   8  -8  -9   -0.67    3.35
   8  -8  -8  436.04   24.30
   8   8  -8  446.32   24.74
   8  -8  -8  458.01   25.13
   8   8  -8  420.05   26.78
   8  -8  -8  443.57   25.23
   8  -8  -7    0.67    3.18
   8   8  -7    1.46    2.75
   8   8  -7    5.90    4.72
   8  -8  -7    4.04    2.75
   8  -8  -6 1102.82   53.36
   8   8  -6 1003.82   53.34
   8  -8  -6 1116.08   54.38
   8   8  -6 1078.96   56.56
   8   8  -6 1105.54   57.10
   8  -8  -5   19.30    5.65
   8  -8  -5   23.26    5.16
   8   8  -5   22.35    6.56
   8  -8  -4   49.11    7.53
   8   8  -4   43.10    7.04
   8   8  -4   46.81    8.57
   8  -8  -4   43.92    6.69
   8   8  -3   -0.58    1.80
   8  -8  -3    5.54    2.46
   8   8  -3    1.33    2.56
   8  -8  -3    4.38    3.50
   8   8  -3   -2.34    4.09
   8  -8  -3   -1.06    3.90
   8   8  -3    1.37    4.10
   8   8  -3   -2.20    4.13
   8   8  -3   -6.22    8.25
   8  -8  -3   -5.67    8.18
   8  -8  -2 2935.81  133.26
   8   8  -2 2854.57  133.49
   8   8  -2 2786.44  149.89
   8  -8  -2 2892.77  148.78
   8  -8  -2 2925.81  136.54
   8   8  -2 2768.47  136.16
   8   8  -2 2773.88  138.06
   8   8  -2 2810.57  133.41
   8  -8  -1   12.58    3.07
   8   8  -1   11.65    2.91
  -8   8   1    1.92    4.36
   8   8  -1    6.58    4.47
   8  -8  -1    8.41    4.69
   8   8  -1   -1.02    3.48
   8   8  -1    3.24    9.35
   8  -8  -1    2.96    7.50
   8  -8  -1    3.44    3.58
   8   8  -1    4.61    4.13
   8  -8   0 1531.55   74.33
  -8   8   0 1373.47   81.28
   8  -8   0 1561.57   72.90
   8   8   0 1502.90   73.15
   8   8   0 1494.43   75.12
   8   8   0 1499.79   77.35
   8  -8   0 1534.87   75.69
   8  -8   0 1541.10   87.97
   8   8   0 1514.23   89.78
   8  -8   0 1459.50   87.60
  -8   8  -1   40.03    9.04
   8  -8   1   33.34    4.80
   8   8   1   35.64    4.97
   8   8   1   26.68    9.75
   8  -8   1   48.18   10.89
   8  -8   1   23.55    7.62
   8   8   1   34.16    5.89
   8   8   1   49.00    7.69
   8  -8   1   34.58    5.77
   8  -8   2  964.85   48.69
   8   8   2  990.98   49.39
  -8   8  -2  932.50   58.87
   8  -8   2  886.89   61.23
   8   8   2 1030.22   53.00
   8  -8   2 1022.89   50.06
   8   8   3    5.47    4.38
   8   8   3    4.04    2.86
  -8   8  -3   -2.40    3.85
   8  -8   3    8.83    3.20
   8   8   4  223.58   16.12
  -8   8  -4  232.85   14.25
   8  -8   4  215.78   13.84
   8   8   4  249.88   14.71
  -8   8  -5   -2.72    2.54
   8  -8   5    7.94    2.63
   8   8   5    7.83    2.65
  -8   8  -5   -0.62    2.44
  -8  -8  -5    4.07    2.63
  -8   8  -6  485.13   25.79
  -8  -8  -6  488.87   25.58
  -8   8  -6  535.21   25.69
   8  -8   6  457.84   24.86
   8   8   6  492.94   25.37
   8  -8   7   -0.63    1.55
   8   8   7    1.38    1.54
  -8   8  -7   -0.83    1.72
  -8   8  -7   -0.38    1.63
  -8   8  -7    0.47    1.14
   8  -9 -11  442.87   22.58
   8  -9 -10    3.56    2.64
   8  -9 -10   -0.53    2.42
   8  -9  -9  242.89   15.59
   8  -9  -9  259.91   15.09
   8   9  -9  261.66   15.44
   8  -9  -9  251.52   15.66
   8   9  -9  269.05   17.18
   8  -9  -8   11.66    4.02
   8  -9  -8    9.43    3.05
   8   9  -8    9.72    3.09
   8  -9  -8   15.19    4.15
   8   9  -8    2.18    3.51
   8   9  -7   62.31    8.24
   8  -9  -7   55.25    6.81
   8  -9  -7   47.91    5.48
   8   9  -7   40.16    5.37
   8  -9  -6   35.52    4.79
   8   9  -6   28.59    4.68
   8   9  -6   40.49    7.04
   8   9  -6   44.44    6.93
   8  -9  -6   28.42    5.42
   8  -9  -5   42.03    7.17
   8  -9  -5   35.08    4.75
   8   9  -5   39.62    5.10
   8   9  -5   42.14    7.36
   8  -9  -5   40.98    6.29
   8   9  -4    2.79    4.33
   8   9  -4   -2.31    4.23
   8  -9  -4   -0.89    3.91
   8   9  -4   -3.62    4.53
   8  -9  -4   -2.15    4.30
   8   9  -3   20.59    5.54
   8  -9  -3   16.02    4.68
   8  -9  -3   13.85    5.17
   8   9  -3   18.22    5.88
   8   9  -3   10.06    4.71
   8   9  -3   22.25    3.72
   8  -9  -2   -1.06    3.88
   8   9  -2    2.77    2.54
   8   9  -2   -2.76    5.30
   8   9  -2    4.31    4.13
   8  -9  -2    1.18    2.45
   8   9  -2    3.81    2.69
   8   9  -1  292.06   17.98
   8   9  -1  257.68   27.42
  -8   9   1  271.10   23.20
   8  -9  -1  325.12   17.38
   8   9  -1  278.43   17.06
   8   9  -1  274.11   19.91
   8  -9  -1  312.09   19.18
   8   9  -1  279.86   19.21
   8   9  -1  282.65   20.94
   8  -9  -1  253.42   19.02
   8   9   0   34.53   10.12
   8  -9   0   26.38    4.04
   8   9   0   23.71    4.15
  -8   9   0   22.77    7.13
   8   9   0   20.68    5.64
   8  -9   0   23.04    5.11
   8  -9   0   39.54    6.50
   8   9   0   34.63    7.33
   8   9   0   23.67    5.31
   8  -9   0   31.86    9.63
   8   9   1   56.88   12.36
  -8  -9  -1   87.92   11.77
  -8   9  -1   77.18   11.82
   8  -9   1   76.94    7.03
   8   9   1   71.69    7.02
   8  -9   1   71.77    7.89
   8  -9   1   88.68    9.11
   8   9   1   83.93   10.25
   8   9   1   80.72    8.58
   8  -9   1   84.63   14.44
  -8  -9  -2    7.71    5.14
  -8   9  -2   20.75    7.16
   8  -9   2   10.30    2.94
   8   9   2   12.24    3.57
   8  -9   2   12.39    4.00
   8  -9   2    2.90    5.70
   8   9   2   19.46    5.78
   8  -9   2    8.91    4.07
   8  -9   3  479.78   26.21
   8   9   3  491.11   26.73
   8   9   3  535.01   30.37
   8  -9   3  540.54   28.29
  -8   9  -3  466.80   36.06
   8   9   4    3.79    3.87
   8  -9   4    1.98    2.24
   8   9   4   -3.37    2.38
  -8   9  -5   33.97    4.46
   8  -9   5   34.82    4.08
   8   9   5   33.96    4.14
  -8   9  -5   31.99    4.29
  -8  -9  -5   30.51    4.12
  -8   9  -6    7.84    2.60
   8  -9   6    5.61    1.93
   8   9   6   10.01    2.44
  -8   9  -6    4.60    1.97
   8   9   7  140.56    9.06
  -8   9  -7  136.32    8.66
   8 -10 -11    8.94    2.06
   8 -10 -10   68.51    5.92
   8 -10 -10   67.53    6.13
   8 -10  -9    1.71    2.81
   8  10  -9   -0.82    2.94
   8 -10  -9    2.42    3.02
   8 -10  -8  218.78   12.58
   8  10  -8  198.79   14.32
   8 -10  -8  187.37   12.13
   8  10  -7    5.46    2.70
   8 -10  -7    2.33    3.97
   8  10  -7    2.32    4.06
   8 -10  -7    0.68    2.24
   8  10  -6   23.83    5.76
   8  10  -6   13.24    4.55
   8 -10  -6    9.74    4.01
   8  10  -6   16.79    3.55
   8  10  -5    1.31    4.32
   8 -10  -5   -0.88    3.21
   8 -10  -5    2.15    4.70
   8  10  -5    0.61    2.46
   8 -10  -4  253.82   18.24
   8  10  -4  258.24   19.04
   8 -10  -4  257.93   17.35
   8  10  -4  267.17   18.92
   8  10  -4  260.20   19.88
   8  10  -3   49.81    7.92
   8 -10  -3   35.96    5.89
   8  10  -3   44.23    8.02
   8  10  -3   42.05    6.97
   8  10  -3   34.00    4.58
   8 -10  -3   42.50    7.08
   8  10  -2  134.52   13.34
   8  10  -2  112.44   10.89
   8  10  -2   94.54    8.12
   8  10  -2  112.95    9.11
   8 -10  -2  112.99   10.85
   8  10  -1    2.43    4.13
   8 -10  -1    0.88    3.50
   8  10  -1    2.37    2.89
   8  10  -1    5.19    3.81
   8 -10  -1   -1.02    3.76
   8  10  -1    3.91    3.13
   8  10   0  546.66   30.44
   8  10   0  530.23   32.36
   8 -10   0  521.93   30.43
   8  10   0  527.33   28.82
   8  10   0  576.96   31.59
   8  10   0  586.78   34.27
   8 -10   0  644.82   32.35
   8 -10   0  499.26   40.31
  -8  10   0  509.68   36.62
   8 -10   1    2.47    3.22
  -8  10  -1   -2.16    3.87
   8  10   1    2.40    2.30
   8  10   1    3.62    3.07
   8  10   1    1.32    4.08
   8 -10   1    3.70    3.63
   8 -10   1    2.86    5.61
  -8 -10  -1    4.01    4.54
   8 -10   2   53.51    6.44
  -8  10  -2   60.66   10.48
   8  10   2   54.86    5.86
   8  10   2   51.69    8.39
   8 -10   2   62.47    7.22
   8 -10   2   56.78   11.85
  -8 -10  -2   51.93    9.52
   8  10   3    1.11    3.87
   8  10   3    2.15    2.15
   8 -10   3    5.36    3.18
   8  10   4  319.24   17.61
  -8  10  -4  287.94   17.74
  -8  10  -5    2.11    2.15
   8  10   5   -0.39    0.70
  -8  10  -6   26.33    3.74
  -8  10  -7   17.25    2.52
   8  10   7   16.72    2.77
   8 -11 -11  792.58   37.47
   8 -11 -10    6.21    2.35
   8 -11 -10    3.99    2.34
   8 -11  -9  851.00   42.16
   8 -11  -9  879.02   42.60
   8  11  -9  826.37   43.68
   8 -11  -8    3.74    3.42
   8 -11  -8    1.98    2.74
   8  11  -8   -2.05    3.93
   8  11  -7  541.60   31.62
   8 -11  -7  581.89   29.48
   8 -11  -7  495.50   28.34
   8 -11  -6    0.80    2.99
   8  11  -6   -2.37    4.93
   8  11  -6   -1.04    3.01
   8 -11  -5   83.36    8.54
   8  11  -5   75.49    9.84
   8  11  -4    6.28    4.50
   8 -11  -4    4.49    3.53
   8 -11  -4    8.47    4.57
   8  11  -4   12.91    4.61
   8  11  -4    7.01    5.28
   8  11  -3  317.06   22.30
   8  11  -3  291.09   20.25
   8  11  -3  293.10   20.95
   8 -11  -3  258.67   18.48
   8 -11  -3  310.18   20.08
   8  11  -3  298.70   17.42
   8 -11  -2   15.43    4.70
   8  11  -2   24.49    7.18
   8  11  -2   26.14    5.74
   8  11  -2   28.71    4.71
   8  11  -1  884.37   45.91
   8  11  -1  876.74   44.22
   8  11  -1  819.80   46.69
   8 -11  -1  821.16   44.55
   8 -11  -1  870.55   45.58
   8  11   0   -1.39    5.21
   8  11   0    1.95    3.74
   8  11   0    2.50    3.20
   8 -11   0   -1.89    3.70
   8 -11   0    8.21    5.79
   8  11   0    1.18    4.23
   8 -11   0   -0.85    3.92
   8 -11   1  465.43   26.40
   8  11   1  467.54   26.80
   8  11   1  522.15   30.23
   8  11   1  461.82   26.52
   8 -11   1  512.43   27.23
  -8 -11  -1  444.89   33.18
  -8  11  -1  367.06   31.51
   8 -11   1  401.02   35.16
   8 -11   2   -0.74    3.09
   8  11   2    1.23    4.28
   8 -11   3  497.05   27.29
   8  11   3  536.58   30.51
   8  11   4    5.48    3.74
   8  11   5  396.92   22.17
  -8  11  -5  408.89   21.67
   8  11   5  399.69   22.58
   8  11   6    9.16    2.55
  -8  11  -6    6.54    2.34
   8 -12 -10  477.62   23.81
   8 -12  -9   55.97    5.08
   8 -12  -9   57.71    5.46
   8  12  -8   61.77    7.94
   8 -12  -8   61.05    6.16
   8 -12  -8   74.00    6.74
   8 -12  -7    1.33    3.66
   8 -12  -7    2.52    2.37
   8 -12  -7    4.84    3.37
   8  12  -7    5.47    3.72
   8 -12  -6  100.18    9.13
   8  12  -6   88.81    9.40
   8 -12  -5   26.27    5.27
   8  12  -5   22.72    6.10
   8  12  -5   35.54    6.70
   8  12  -4   -1.26    4.38
   8 -12  -4    3.53    3.39
   8  12  -4    8.14    4.37
   8  12  -4    5.49    4.40
   8 -12  -3   56.20    7.72
   8  12  -3   47.04    5.39
   8  12  -3   47.22    8.01
   8 -12  -3   38.37    6.48
   8  12  -3   61.62    9.00
   8  12  -3   49.57    7.59
   8  12  -2  607.95   35.96
   8  12  -2  557.72   33.22
   8 -12  -2  578.07   32.91
   8  12  -2  587.91   31.20
   8 -12  -1   22.91    5.26
   8  12  -1   15.73    3.94
   8  12  -1   17.24    5.65
   8 -12  -1   30.31    5.75
   8  12  -1   21.42    5.18
   8 -12   0   98.17    9.13
   8  12   0   69.24    7.77
   8  12   0   84.42    9.74
   8 -12   0   82.85    8.28
   8  12   0   92.99   11.06
   8  12   0   77.50    8.42
   8 -12   1    5.45    3.24
   8 -12   1    2.36    3.51
   8  12   1    3.33    3.05
   8  12   1    1.31    4.21
   8  12   1    2.48    3.18
   8 -12   2   44.08    5.93
   8  12   2   34.93    7.15
   8  12   2   47.67    6.14
   8 -12   3   -0.59    2.47
   8  12   3    1.06    3.79
   8  12   4    0.87    3.20
   8  12   4    3.91    2.28
   8  12   5    2.76    2.16
  -8  12  -5   -0.47    2.13
   8  12   5    3.61    2.50
   8  12   6   31.32    3.85
  -8  12  -6   39.55    3.98
   8 -13 -10    4.15    1.50
   8 -13  -9  470.23   10.99
   8 -13  -9  459.67   11.89
   8  13  -8    6.20    3.70
   8 -13  -8    8.34    2.77
   8 -13  -8    6.69    2.88
   8 -13  -7  357.71   19.73
   8 -13  -7  309.44   19.12
   8 -13  -7  334.05   19.75
   8 -13  -6   26.87    5.26
   8  13  -6   70.74    8.34
   8  13  -5  608.57   34.65
   8 -13  -5  584.76   32.38
   8  13  -5  583.60   34.26
   8  13  -5  613.88   34.76
   8  13  -4    8.63    4.45
   8 -13  -4    9.39    3.97
   8  13  -4   18.43    5.99
   8 -13  -3  239.76   16.76
   8  13  -3  282.03   19.54
   8  13  -3  253.98   19.54
   8  13  -3  249.83   18.26
   8 -13  -2    7.59    4.04
   8  13  -2   12.00    3.32
   8 -13  -2    9.49    4.50
   8  13  -2   10.45    4.37
   8  13  -2    8.51    5.81
   8 -13  -1  621.13   32.35
   8  13  -1  561.80   30.98
   8 -13  -1  570.68   31.59
   8  13  -1  580.13   33.90
   8  13  -1  538.42   32.15
   8 -13   0    5.60    3.73
   8  13   0    3.43    4.29
   8 -13   0    1.61    3.48
   8  13   0    1.36    5.22
   8  13   0   -0.90    3.31
   8  13   0    0.80    2.87
   8  13   1  576.84   33.40
   8 -13   1  564.44   31.39
   8  13   1  572.90   31.52
   8  13   1  656.51   35.62
   8  13   1  587.67   31.86
   8 -13   2    6.63    3.28
   8  13   2    9.27    5.25
   8 -13   3  149.37   10.14
   8  13   3  143.77   12.26
   8  13   4    4.04    3.19
   8  13   4   10.25    3.18
   8  13   5  718.27   36.75
   8  13   5  740.21   37.04
  -8  13  -5  754.61   36.44
   8 -14  -9   -1.18    2.09
   8 -14  -9   -0.60    1.56
   8  14  -9   -0.47    0.92
   8 -14  -8  874.33   43.88
   8 -14  -8  859.01   43.30
   8 -14  -7    1.05    2.48
   8 -14  -7   -1.03    1.30
   8  14  -7    3.81    4.03
   8 -14  -6  125.14    9.71
   8 -14  -5   18.88    4.46
   8  14  -5   19.71    5.41
   8  14  -5   27.92    5.90
   8  14  -5   18.42    5.07
   8  14  -4  718.53   40.36
   8 -14  -4  659.17   37.55
   8  14  -4  759.63   40.91
   8  14  -4  769.10   40.20
   8  14  -3   15.90    6.06
   8  14  -3   13.57    4.65
   8 -14  -2  576.66   32.66
   8  14  -2  577.20   35.05
   8  14  -2  687.52   37.24
   8  14  -2  624.62   34.26
   8  14  -2  591.73   31.90
   8  14  -1    5.80    3.72
   8 -14  -1   -0.80    3.45
   8  14  -1    5.57    3.41
   8  14  -1    1.22    2.45
   8  14  -1    8.85    3.34
   8  14   0 1132.79   60.42
   8 -14   0 1098.32   58.08
   8  14   0 1201.87   58.93
   8  14   0 1262.54   62.61
   8  14   0 1208.74   58.49
   8 -14   1   19.42    4.32
   8  14   1   29.13    6.43
   8  14   1   15.77    4.26
   8 -14   2  284.08   17.53
   8  14   2  354.83   21.42
   8  14   3    5.58    4.09
   8  14   3    9.51    3.23
   8  14   4  401.46   22.89
   8  14   4  397.16   21.74
   8  14   5    7.74    2.24
  -8  14  -5    2.23    1.94
   8 -15  -9    4.92    1.32
   8  15  -8   38.82    5.05
   8 -15  -8   37.14    3.75
   8  15  -7   38.19    5.85
   8 -15  -7   37.45    4.32
   8 -15  -6    5.91    2.60
   8 -15  -6    3.27    2.70
   8 -15  -5  178.85   12.22
   8  15  -5  137.33   12.16
   8  15  -4    3.31    4.04
   8 -15  -4    0.74    2.91
   8  15  -4    3.00    3.75
   8  15  -4   -1.10    3.95
   8  15  -3  140.39   12.57
   8  15  -3  139.39   12.93
   8  15  -3  124.03   11.20
   8  15  -2   -4.54    5.21
   8 -15  -2   -2.30    3.37
   8  15  -2    1.27    5.29
   8  15  -2   -0.93    3.64
   8  15  -1    5.45    4.53
   8 -15  -1    3.72    3.52
   8  15  -1   -2.09    2.44
   8  15  -1    2.32    2.45
   8  15  -1    2.56    2.82
   8  15  -1    1.27    4.65
   8  15   0    4.07    3.64
   8 -15   0    2.09    3.00
   8  15   0    0.71    2.48
   8  15   0    3.65    5.16
   8  15   0    6.04    3.20
   8 -15   1   11.86    3.51
   8  15   1   13.82    3.59
   8  15   1   13.51    5.21
   8 -15   2   16.75    3.42
   8  15   2   12.97    4.78
   8  15   3   81.22    8.64
   8  15   3   97.78    7.60
   8  15   4   -0.63    2.52
   8  15   4   -0.47    1.81
   8  16  -8  548.46   26.32
   8 -16  -8  470.58   23.94
   8  16  -7   55.78    6.05
   8 -16  -7   57.17    5.32
   8 -16  -7   49.99    4.69
   8 -16  -6  275.75   16.81
   8 -16  -6  320.35   17.36
   8 -16  -6  309.33   16.85
   8  16  -5    4.48    3.66
   8 -16  -5    0.60    2.41
   8  16  -4  793.28   42.07
   8  16  -4  815.85   42.00
   8  16  -4  801.83   42.45
   8 -16  -4  752.30   39.96
   8  16  -3   14.23    5.21
   8  16  -3   14.19    4.69
   8  16  -3   10.46    4.69
   8  16  -2  108.61   11.25
   8  16  -2  109.18    9.53
   8  16  -2   90.50   10.06
   8 -16  -2  108.44    8.85
   8  16  -1    5.78    4.46
   8  16  -1   11.51    3.67
   8  16  -1   14.82    3.03
   8  16  -1    4.99    3.78
   8 -16  -1   12.73    3.78
   8  16   0  504.40   27.33
   8  16   0  526.90   26.92
   8  16   0  495.26   27.27
   8  16   0  501.13   29.11
   8 -16   0  508.47   27.23
   8  16   1    4.07    3.74
   8  16   1    3.11    2.23
   8 -16   1    1.63    2.50
   8  16   2  260.56   17.32
   8 -16   2  255.22   14.57
   8  16   3    0.98    1.84
   8  16   3    1.46    2.87
   8  16   4  667.18   33.18
   8  16   4  682.46   34.10
   8 -17  -8   15.12    2.29
   8  17  -7   51.02    5.63
   8 -17  -7   52.79    4.48
   8 -17  -7   38.00    3.58
   8 -17  -6    5.46    2.75
   8 -17  -6    1.11    2.05
   8  17  -5   89.82    8.46
   8 -17  -5   80.98    6.83
   8  17  -4   17.75    4.51
   8  17  -4   21.91    4.46
   8 -17  -4   15.53    3.33
   8  17  -4   24.54    5.32
   8  17  -3   51.85    7.03
   8  17  -3   33.88    5.49
   8  17  -3   52.07    6.78
   8  17  -2   27.45    5.75
   8  17  -2   13.35    3.93
   8  17  -2   21.38    5.00
   8 -17  -2   15.29    3.52
   8  17  -1  164.56    8.86
   8  17  -1  184.46   11.71
   8  17  -1  164.66   10.37
   8 -17  -1  169.92    8.40
   8  17   0    3.19    2.21
   8  17   0    4.44    2.02
   8  17   0    4.08    3.27
   8 -17   0    2.67    2.38
   8  17   1  460.37   25.68
   8  17   1  452.89   22.94
   8 -17   1  399.66   22.40
   8  17   2   -1.33    1.70
   8  17   2   -0.77    3.22
   8  17   3   12.28    3.55
   8  17   4   -0.39    1.54
   8 -18  -7    1.44    1.44
   8  18  -7    3.68    2.12
   8 -18  -6  224.56   12.29
   8 -18  -6  207.06   11.46
   8 -18  -5    1.73    2.27
   8  18  -5   -2.01    2.57
   8 -18  -5    1.78    1.92
   8 -18  -4    7.22    2.47
   8  18  -4    8.28    3.07
   8  18  -4   -0.58    1.23
   8  18  -3   15.16    4.21
   8  18  -3   10.12    3.13
   8  18  -3    4.63    2.99
   8  18  -2   93.25    8.66
   8 -18  -2   76.93    6.99
   8  18  -2  103.42    8.07
   8  18  -2   98.79    9.18
   8 -18  -1   39.61    4.55
   8  18  -1   39.16    5.67
   8  18  -1   33.35    6.01
   8  18  -1   42.32    4.85
   8 -18   0   40.79    4.46
   8  18   1   -2.28    3.10
   8  18   2   30.85    4.61
   8  18   3    2.90    2.15
   8 -19  -6   -0.80    1.28
   8 -19  -5  310.40   15.39
   8  19  -5  324.23   16.88
   8  19  -4   14.58    3.21
   8  19  -3  468.18   25.04
   8  19  -3  466.55   24.85
   8 -19  -2   17.39    2.96
   8  19  -2   15.43    3.08
   8  19  -2   19.16    3.95
   8 -19  -1  489.36   25.87
   8  19  -1  503.90   25.87
   8  19   1  471.39   25.50
   8  19   2   39.90    4.66
   8  20  -4  133.01    8.55
   8 -20  -4  125.51    7.57
   8  20  -3   -0.39    1.70
   8  20  -2   13.49    2.79
   8  20  -1    2.65    2.40
   8  20   0  569.61   29.33
   8  20   1   21.85    3.28
   9   0 -12   -1.23    1.48
   9   0 -11  137.83    9.35
   9   0 -10    9.46    3.43
   9   0 -10    7.06    3.85
   9   0  -9 1912.45   91.27
   9   0  -9 1923.02   92.32
   9   0  -8    2.81    2.69
   9   0  -8   -2.53    3.99
   9   0  -7  840.85   42.85
   9   0  -7  804.19   43.91
   9   0  -7  878.75   44.12
   9   0  -6   31.23    5.69
   9   0  -6   22.06    4.32
   9   0  -6   26.52    6.43
   9   0  -5 1920.55   96.77
   9   0  -5 2013.62   98.62
   9   0  -5 2023.88   94.57
   9   0  -4   -3.92    8.30
   9   0  -4    0.84    3.37
   9   0  -4    1.06    3.79
   9   0  -4   -0.61    2.25
   9   0  -3  138.53   10.46
   9   0  -3   87.47   10.51
   9   0  -3  119.32   20.28
   9   0  -2   10.26    3.43
   9   0  -2    5.98    4.19
   9   0  -1 1734.03   80.18
   9   0  -1 1550.57   81.64
   9   0  -1 1492.78   98.15
   9   0   0   11.82    4.24
   9   0   0    4.02    7.90
   9   0   1 2338.44  111.56
   9   0   2    3.25    3.62
   9   0   3 1972.32   94.67
   9   0   4   26.42    5.19
   9   0   5  858.85   43.49
   9   0   6   11.06    3.17
  -9   0  -6    3.04    2.55
  -9   0  -7  362.63   19.84
   9   0   7  367.39   19.49
   9   0   8    7.50    1.88
   9  -1 -12   19.18    2.65
   9   1 -11    4.17    2.61
   9  -1 -11    5.35    2.84
   9  -1 -10  129.73    9.86
   9  -1 -10  128.36   10.29
   9   1 -10  149.18   10.07
   9   1  -9    9.78    3.35
   9  -1  -9   14.76    3.69
   9  -1  -9   14.82    4.62
   9   1  -8  504.13   27.39
   9  -1  -8  510.77   27.64
   9  -1  -8  496.16   28.28
   9   1  -7    0.69    3.00
   9  -1  -7   -0.72    3.07
   9   1  -7   -1.15    3.89
   9   1  -7   -2.59    3.31
   9  -1  -7    2.83    3.54
   9  -1  -7    1.67    3.91
   9   1  -6   10.82    5.22
   9   1  -6   13.79    3.43
   9  -1  -6   13.69    3.75
   9  -1  -6   20.97    5.22
   9   1  -6   13.23    4.58
   9  -1  -5    2.46    4.72
   9   1  -5    6.06    4.23
   9  -1  -5    4.14    3.97
   9   1  -5    8.02    4.17
   9   1  -5    1.83    3.06
   9  -1  -5    2.79    3.11
   9   1  -4  179.52   13.07
   9  -1  -4  226.86   14.28
   9  -1  -4  254.91   15.73
   9  -1  -4  265.45   29.27
   9  -1  -4  236.25   16.60
   9   1  -4  231.55   16.39
   9  -1  -4  234.57   17.51
   9  -1  -3    1.66    3.58
   9  -1  -3    6.16    4.30
   9   1  -3    7.19    4.99
   9  -1  -3    7.82    6.26
   9  -1  -2    6.73    3.64
   9   1  -2   10.61    4.63
   9   1  -2    5.39    4.33
   9  -1  -2    3.97    7.12
   9  -1  -1    6.73    4.06
   9   1  -1    7.98    4.10
   9   1  -1   15.64    5.54
   9  -1  -1   16.05    9.64
   9  -1   0  455.74   25.93
   9   1   0  460.96   28.59
   9  -1   0  385.40   39.40
   9  -1   1    1.64    3.60
   9   1   1   -1.21    4.22
   9  -1   2   23.20    4.90
   9  -1   3   17.73    4.17
   9  -1   4  343.76   20.35
   9  -1   5   16.18    3.84
   9  -1   6   25.64    4.13
  -9  -1  -6   20.42    3.80
   9  -1   7   -0.42    2.02
  -9  -1  -7    1.93    2.12
   9  -1   8  205.61   11.23
   9  -2 -12   13.12    2.36
   9   2 -11  302.29   17.08
   9  -2 -11  327.05   17.59
   9  -2 -10   -0.59    3.05
   9   2 -10    3.94    2.74
   9  -2 -10    1.99    3.10
   9  -2  -9  332.40   19.61
   9   2  -9  339.63   19.43
   9  -2  -9  335.24   20.18
   9   2  -8    3.00    3.31
   9   2  -8    4.66    2.82
   9  -2  -8    5.04    3.46
   9  -2  -8    3.22    3.82
   9   2  -7  787.87   38.67
   9  -2  -7  762.58   39.20
   9   2  -7  739.50   41.56
   9  -2  -7  740.85   39.56
   9  -2  -7  713.31   40.22
   9   2  -6    9.90    3.09
   9  -2  -6   10.45    3.90
   9   2  -6   13.52    4.05
   9   2  -6    3.59    4.20
   9   2  -5  352.97   20.00
   9  -2  -5  375.21   21.37
   9  -2  -5  367.01   22.93
   9   2  -5  358.96   22.42
   9   2  -5  349.46   23.62
   9  -2  -4   11.30    4.05
   9  -2  -4    2.16    3.88
   9   2  -4   17.55    4.69
   9   2  -4   11.86    8.38
   9  -2  -4    3.74    6.71
   9  -2  -3   59.95    6.92
   9  -2  -3   53.00    8.03
   9   2  -3   58.04    8.24
   9   2  -3   56.18   14.94
   9  -2  -3   61.02   14.22
   9  -2  -2    9.03    3.41
   9   2  -2    1.34    4.66
   9   2  -2   -1.16    3.72
   9   2  -2   -8.12   12.58
   9  -2  -2   -7.77   10.31
   9  -2  -1  296.28   18.70
   9   2  -1  308.48   21.47
   9   2  -1  264.56   19.75
   9   2  -1  350.24   35.08
   9  -2  -1  360.94   34.70
   9  -2   0   10.57    4.12
   9   2   0   19.15    5.01
   9   2   0   17.52    5.34
   9   2   0   12.08   10.21
   9  -2   0   15.57    9.37
   9   2   1 1467.62   74.55
   9  -2   1 1460.91   71.77
   9   2   2   23.43    5.65
   9  -2   2   33.54    5.34
   9  -2   3  816.73   54.12
   9  -2   3  886.79   44.57
   9  -2   4    9.12    3.53
   9  -2   5  247.40   15.32
  -9  -2  -6    0.58    2.47
   9  -2   6    3.17    2.64
  -9   2  -7   97.86    7.42
  -9  -2  -7   94.15    7.32
   9  -2   7   96.96    6.94
   9  -2   8   -0.27    1.32
   9   2   8    2.18    1.36
   9  -3 -12  122.36    7.59
   9   3 -11    2.39    2.04
   9  -3 -11   -0.48    2.31
   9  -3 -10  419.99   23.50
   9  -3 -10  454.69   24.07
   9   3 -10  440.68   24.29
   9   3 -10  423.40   23.18
   9  -3  -9    4.72    3.34
   9   3  -9    9.16    3.54
   9  -3  -9    8.70    3.50
   9   3  -9    8.58    3.66
   9   3  -8 1294.99   67.81
   9  -3  -8 1420.01   66.46
   9  -3  -8 1295.26   66.44
   9   3  -8 1379.71   67.15
   9   3  -8 1366.34   65.64
   9   3  -7   10.35    4.34
   9   3  -7   14.90    3.58
   9  -3  -7    8.35    3.83
   9  -3  -7   13.39    4.40
   9   3  -7    7.62    4.15
   9  -3  -6  777.64   40.95
   9   3  -6  678.52   38.93
   9   3  -6  740.92   37.73
   9  -3  -6  795.83   39.39
   9   3  -6  770.53   41.87
   9  -3  -5   35.90    6.24
   9   3  -5   34.66    5.74
   9   3  -5   30.95    6.59
   9  -3  -5   39.81    5.68
   9   3  -4  536.65   34.48
   9  -3  -4  634.68   31.75
   9   3  -4  623.85   32.03
   9  -3  -4  531.82   32.65
   9   3  -4  546.10   32.23
   9   3  -4  508.81   45.84
   9  -3  -4  541.52   44.97
   9   3  -3   32.79    6.83
   9   3  -3   68.75    9.22
   9  -3  -3   54.75    7.03
   9   3  -3   53.08    6.90
   9  -3  -3   69.25    7.14
   9   3  -3   59.52   16.07
   9  -3  -3   92.54   17.20
   9  -3  -2   47.92    6.05
   9   3  -2   37.36    5.87
   9   3  -2   26.33    6.23
   9   3  -2   29.13    6.90
   9   3  -2   32.09   12.12
   9  -3  -2   49.06   13.26
   9  -3  -1    4.01    3.45
   9   3  -1   -0.85    3.45
   9   3  -1    4.42    4.33
   9   3  -1    3.84    5.02
   9   3  -1   -4.03    9.12
   9  -3  -1   -3.82    9.17
   9  -3   0  868.03   44.80
   9   3   0  914.75   45.31
   9   3   0  832.34   46.17
   9   3   0  853.97   47.46
   9   3   0  931.52   64.06
   9  -3   0  810.90   60.35
   9  -3   1   10.88    4.10
   9   3   1    4.93    3.44
   9   3   1   17.91    5.34
   9  -3   2  838.61   43.38
   9   3   2  848.22   43.69
   9   3   2  848.11   45.71
   9  -3   3   11.48    3.84
   9   3   3    9.18    3.90
  -9   3  -3    9.34    5.31
   9   3   3   11.72    4.23
   9  -3   4  932.86   46.23
   9   3   4  902.55   46.34
   9  -3   5    0.60    2.49
   9   3   5    1.88    2.75
  -9   3  -6   59.59    5.99
  -9  -3  -6   53.79    5.76
   9  -3   6   68.09    5.85
   9   3   6   53.81    5.66
  -9   3  -7    2.75    2.02
  -9  -3  -7    5.32    2.19
   9  -3   7    2.28    1.81
   9   3   7    3.92    1.86
   9  -3   8  339.97   17.32
   9   3   8  353.27   17.45
   9  -4 -11  159.70   10.27
   9  -4 -10    2.31    2.62
   9   4 -10   -1.45    2.72
   9  -4 -10    0.59    2.65
   9   4 -10   -1.31    3.00
   9  -4  -9  402.75   22.93
   9   4  -9  419.00   22.43
   9  -4  -9  393.81   23.01
   9   4  -9  418.99   23.57
   9   4  -8   -4.08    3.65
   9  -4  -8    1.46    3.14
   9   4  -8   -0.59    2.65
   9  -4  -8   -2.23    3.82
   9   4  -8   -1.62    3.89
   9   4  -7   26.31    6.19
   9  -4  -7   22.04    3.79
   9  -4  -7   32.84    5.29
   9   4  -7   35.76    5.89
   9   4  -7   25.79    4.07
   9  -4  -7   24.71    4.74
   9  -4  -6   44.46    7.18
   9   4  -6   42.72    5.81
   9   4  -6   42.45    7.37
   9  -4  -6   38.84    6.08
   9  -4  -5  220.43   17.23
   9   4  -5  256.71   16.78
   9  -4  -5  260.69   16.38
   9   4  -5  248.47   18.29
   9  -4  -4    3.31    3.38
   9   4  -4   -3.83    6.85
   9  -4  -4    3.51    6.28
   9   4  -4    4.87    3.66
   9   4  -4   -1.40    5.13
   9   4  -3    1.37    4.38
   9   4  -3    5.81    4.83
   9  -4  -3    3.82    3.18
   9  -4  -3    0.84    3.10
   9   4  -3   -3.89    8.24
   9  -4  -3    3.58    7.59
   9   4  -2    5.66    4.06
   9   4  -2    7.92    5.07
   9  -4  -2    7.74    3.62
   9   4  -2    4.99    3.06
   9  -4  -2    1.69    3.90
   9   4  -2   -3.93    8.33
   9  -4  -2    7.31    7.74
   9  -4  -1  212.90   13.86
   9   4  -1  184.25   13.51
   9   4  -1  177.88   25.15
   9  -4  -1  170.35   23.19
   9   4  -1  185.20   14.77
   9   4  -1  175.39   15.26
   9  -4   0    0.77    2.81
   9   4   0    0.82    3.14
   9   4   0    3.91    7.66
   9  -4   0    3.67    7.77
   9   4   0    3.10    3.96
   9   4   0    1.24    3.98
   9  -4   1    1.49    3.22
   9   4   1    2.41    3.08
   9   4   1    1.90    3.05
   9   4   1    7.14    4.47
  -9   4  -2   18.87    7.09
   9  -4   2   10.77    3.64
   9   4   2   11.71    4.09
   9   4   2   15.47    5.11
   9  -4   3   30.69    5.01
   9   4   3   32.63    5.31
   9   4   3   45.87    6.58
   9  -4   4    1.90    3.12
   9   4   4   -0.68    2.73
   9  -4   5   36.58    4.87
   9   4   5   43.69    5.27
   9  -4   6    5.58    2.45
   9   4   6    4.88    2.72
  -9   4  -6    6.06    2.54
  -9  -4  -6    2.65    2.29
   9  -4   7   13.20    2.44
   9   4   7   12.74    2.44
  -9   4  -7    9.44    2.48
  -9  -4  -7   10.28    2.41
   9  -4   8    0.42    0.98
   9   4   8    1.11    1.18
   9  -5 -10  478.32   13.34
   9   5 -10  496.41   14.29
   9   5  -9    2.98    1.79
   9  -5  -9    2.62    3.02
   9   5  -9   -0.51    0.99
   9  -5  -9    1.94    3.05
   9   5  -9   -2.85    3.17
   9   5  -8  314.49   18.35
   9  -5  -8  328.79   16.77
   9  -5  -8  312.55   16.42
   9   5  -8  318.48   16.94
   9  -5  -8  280.83   14.89
   9   5  -7   -1.14    3.64
   9  -5  -7   -0.62    2.69
   9  -5  -7    4.41    3.53
   9   5  -7    6.45    3.82
   9  -5  -7    2.34    3.48
   9   5  -6 1960.25  100.37
   9  -5  -6 1962.73   99.43
   9  -5  -6 2184.61   98.54
   9   5  -5    4.04    2.82
   9  -5  -5    2.15    4.21
   9  -5  -5    2.38    2.98
   9   5  -5    1.18    4.23
   9   5  -4   39.98    7.12
   9   5  -4   37.88    5.96
   9   5  -4   44.51    8.11
   9   5  -4   40.87   12.05
   9  -5  -4   33.85   11.01
   9  -5  -4   56.90    6.88
   9  -5  -3    5.90    3.31
   9   5  -3    6.42    3.60
   9  -5  -3   12.79    4.11
   9   5  -3    9.26    4.74
   9   5  -3    9.55    5.58
   9  -5  -3    5.64    4.79
   9   5  -3    3.79    6.78
   9  -5  -3   17.32    8.77
   9  -5  -2  112.88    9.21
   9   5  -2  101.13    9.06
   9  -5  -2  113.76    9.72
   9   5  -2   68.93   15.28
   9  -5  -2  134.15   19.82
   9  -5  -2   58.99    8.77
   9   5  -2   83.37    9.82
   9   5  -1   11.55    7.61
   9  -5  -1   32.15   11.11
   9  -5  -1   18.76    4.27
   9   5  -1   25.07    4.89
   9   5  -1   17.29    5.35
   9   5  -1   30.84    6.73
   9  -5   0  244.41   15.44
   9   5   0  224.73   15.54
   9  -5   0  229.81   16.02
   9   5   0  263.67   29.14
   9  -5   0  237.40   27.46
   9   5   0  238.83   16.89
   9   5   0  217.17   17.58
   9   5   1   30.00    5.41
   9   5   1   27.47    6.21
  -9   5  -1   36.56    9.20
   9  -5   1   20.73    4.33
   9   5   1   17.14    4.31
   9   5   2 1378.65   69.24
   9  -5   2 1339.98   66.15
   9   5   2 1386.36   66.82
  -9   5  -2 1301.14   76.35
   9   5   3   -0.97    4.19
   9  -5   3   -1.29    3.00
   9   5   3    1.42    2.90
   9  -5   4  116.26    8.87
   9   5   4  116.72    9.20
  -9   5  -5    4.35    3.07
  -9  -5  -5    3.56    2.73
   9  -5   5    7.77    2.85
   9   5   5    3.37    2.59
  -9   5  -6  415.53   22.51
  -9  -5  -6  431.72   22.51
   9  -5   6  411.80   21.90
   9   5   6  427.28   22.21
   9  -5   7   -0.31    1.65
   9   5   7   -0.33    1.53
   9  -6 -10    8.91    2.67
   9   6 -10   12.17    3.37
   9  -6  -9  351.77   12.04
   9   6  -9  378.73   13.14
   9   6  -9   73.81    6.39
   9  -6  -8   25.69    4.10
   9  -6  -8   25.37    4.36
   9   6  -8   28.72    4.89
   9   6  -8   20.30    4.94
   9  -6  -8   28.82    5.13
   9  -6  -7 1620.19   75.87
   9   6  -7 1560.19   76.17
   9  -6  -7 1533.85   75.30
   9   6  -7 1482.07   78.26
   9  -6  -7 1625.12   76.58
   9  -6  -6   -2.12    2.65
   9   6  -6    1.17    4.29
   9  -6  -6    0.83    3.68
   9   6  -6    0.77    3.10
   9  -6  -6   -2.11    3.03
   9  -6  -6    1.04    3.82
   9   6  -5  727.05   41.26
   9  -6  -5  707.58   37.74
   9   6  -4    2.35    4.09
   9   6  -4   -0.85    3.21
   9   6  -4   -1.39    4.96
   9  -6  -4    3.38    3.77
   9  -6  -4    3.32    4.05
   9  -6  -3  566.20   30.05
   9   6  -3  606.41   30.78
   9  -6  -3  526.40   30.64
   9   6  -3  549.95   32.63
   9   6  -3  540.46   33.73
   9   6  -3  646.48   47.55
   9  -6  -3  516.78   43.38
   9  -6  -3  522.95   32.30
   9   6  -2   32.74    4.39
   9  -6  -2   24.98    5.25
   9  -6  -2   21.51    5.90
   9  -6  -2   44.58    5.39
   9   6  -2   42.14    5.69
   9   6  -2   30.33    6.69
   9   6  -2    7.40    9.92
   9  -6  -2   16.97    9.51
   9  -6  -1  348.04   21.76
   9  -6  -1  319.48   19.02
   9   6  -1  310.34   19.18
   9   6  -1  293.47   20.54
   9   6  -1  332.05   22.48
   9  -6  -1  274.43   30.76
   9   6  -1  275.76   31.35
   9   6   0   45.53    6.93
   9   6   0   41.56    7.45
   9  -6   0   53.16    6.13
   9   6   0   49.45    6.41
  -9   6   0   47.26    9.35
   9   6   0   51.89   13.44
   9  -6   0   37.40   11.43
   9  -6   0   52.03    6.60
   9   6   1 1305.03   66.21
   9   6   1 1335.41   68.34
   9   6   1 1175.77   80.80
   9  -6   1 1238.19   79.72
  -9   6  -1 1357.44   75.29
   9  -6   1 1338.41   64.72
   9   6   1 1372.50   65.32
   9   6   2    6.64    4.34
  -9   6  -2    2.32    5.24
   9  -6   2    0.64    2.74
   9   6   2    8.65    3.96
   9   6   3 1180.78   57.07
   9  -6   3 1044.41   53.94
   9   6   3 1129.15   54.77
   9   6   4    0.78    2.57
   9  -6   4    1.09    2.54
   9   6   4    0.61    2.57
  -9   6  -5  341.35   19.82
  -9  -6  -5  371.55   19.93
   9  -6   5  342.20   19.18
   9   6   5  368.76   19.71
  -9   6  -6    8.49    2.58
  -9  -6  -6    5.81    2.34
   9  -6   6    8.28    2.34
   9   6   6    6.55    2.36
   9  -6   7   58.81    4.42
   9   6   7   60.20    4.53
   9  -7 -11    7.19    2.23
   9  -7  -9    0.99    1.48
   9  -7  -9    2.17    2.65
   9   7  -9    1.81    2.65
   9   7  -9   -0.74    1.95
   9  -7  -8    7.77    2.93
   9  -7  -8    8.03    3.14
   9   7  -8    5.46    3.16
   9   7  -8    7.00    4.01
   9  -7  -7    6.76    2.99
   9  -7  -7    5.94    3.19
   9   7  -7   11.64    3.88
   9   7  -7    8.97    4.22
   9  -7  -7    7.76    4.45
   9  -7  -6  177.90   12.42
   9  -7  -6  190.41   13.58
   9  -7  -6  179.66   12.26
   9   7  -6  175.62   12.55
   9   7  -6  164.42   14.31
   9  -7  -5   31.27    6.83
   9  -7  -5   45.94    6.07
   9   7  -5   48.08    7.93
   9  -7  -4   30.92    6.52
   9   7  -4   35.30    6.93
   9   7  -4   24.87    6.77
   9  -7  -4   30.58    5.57
   9  -7  -3    2.05    2.62
   9   7  -3    0.74    3.14
   9  -7  -3    8.96    5.30
   9   7  -3   -3.48    5.57
   9  -7  -3   -9.54    7.20
   9   7  -3    3.48    5.00
   9   7  -3    4.11    4.25
   9  -7  -3    0.86    3.97
   9  -7  -2    6.04    4.15
   9  -7  -2    8.93    3.53
   9   7  -2    7.46    3.84
   9   7  -2    5.72    2.46
   9   7  -2    7.85    3.82
   9  -7  -2    7.84    4.22
   9   7  -2   14.17    8.03
   9  -7  -2    3.24    6.36
   9  -7  -1   29.58    4.56
   9   7  -1   29.23    4.92
  -9   7   1   11.74    5.27
   9  -7  -1   13.66    4.52
   9   7  -1    3.57    7.06
   9  -7  -1   26.14    9.10
   9  -7  -1   27.41    5.95
   9   7  -1   13.12    5.43
   9   7  -1   21.41    5.08
   9  -7   0    6.07    3.44
   9   7   0   14.83    3.82
  -9   7   0   16.82    6.53
   9  -7   0   13.34    4.45
   9   7   0    3.56    5.72
   9  -7   0   16.20    7.34
   9  -7   0    2.10    3.68
   9   7   0   12.03    4.49
   9   7   0   17.82    5.50
  -9   7  -1   -2.21    4.68
   9  -7   1    1.29    2.77
   9   7   1    2.15    2.81
   9  -7   1    0.80    3.32
   9   7   1    0.91    3.32
   9   7   1    2.42    4.10
   9   7   1   -3.47    6.21
   9  -7   1   -3.12    4.32
   9  -7   2   14.44    3.68
   9   7   2    7.50    3.32
   9  -7   3   16.07    3.49
   9   7   3   10.09    3.51
   9   7   3   14.47    4.34
   9  -7   4    2.48    2.38
   9   7   4    6.14    2.61
   9   7   4    3.85    3.26
   9  -7   5   27.69    3.63
   9   7   5   26.99    3.81
  -9   7  -5   22.06    3.73
  -9  -7  -5   26.35    3.89
   9   7   6  162.50    9.70
   9  -7   6  166.46    9.55
  -9   7  -6  153.68   10.01
  -9  -7  -6  161.84    9.97
   9  -7   7   -0.40    0.96
   9   7   7    0.67    0.80
   9  -8 -11  860.90   41.07
   9  -8 -10    0.45    2.08
   9  -8  -9  386.34   12.08
   9   8  -9  375.79   12.57
   9  -8  -9  356.52   11.84
   9  -8  -8    1.20    2.63
   9  -8  -8    8.38    2.46
   9   8  -8    4.33    2.11
   9   8  -8    0.98    3.04
   9  -8  -7 1206.09   57.93
   9   8  -7 1152.49   58.14
   9  -8  -7 1209.18   58.42
   9   8  -7 1173.20   61.08
   9  -8  -6    6.59    3.67
   9   8  -6    3.48    3.83
   9  -8  -6    4.98    3.18
   9  -8  -6    5.07    2.96
   9   8  -6    4.88    3.06
   9  -8  -5  515.75   29.04
   9  -8  -5  457.12   26.68
   9   8  -5  462.30   29.66
   9  -8  -4   27.41    6.33
   9  -8  -4   23.78    5.02
   9   8  -4   37.67    6.84
   9   8  -4   27.48    6.72
   9  -8  -3  292.76   20.49
   9   8  -3  283.80   20.35
   9   8  -3  314.89   22.28
   9   8  -3  281.92   30.21
   9  -8  -3  337.70   19.92
   9  -8  -2   25.30    4.24
   9   8  -2   30.22    4.64
   9   8  -2   20.69    3.86
   9   8  -2   10.05    4.55
   9   8  -2    3.35   12.01
   9  -8  -2    6.11   10.69
   9  -8  -2   15.37    5.12
   9  -8  -1  537.65   31.66
   9  -8  -1  600.91   30.79
   9   8  -1  587.68   31.10
   9   8  -1  606.60   31.34
   9  -8  -1  570.65   33.23
   9   8  -1  587.45   33.48
   9   8  -1  624.78   35.58
   9   8  -1  520.21   43.99
   9  -8  -1  501.62   42.45
   9   8   0    3.36    5.39
   9  -8   0    1.02    3.99
   9   8   0    8.91    4.19
   9   8   0   12.84    5.44
   9  -8   0    3.30    3.50
   9  -8   0    4.42    3.12
   9   8   0    3.50    3.17
  -9   8   0    2.04    3.65
   9  -8   1 1117.13   55.84
   9  -8   1 1174.88   57.30
   9   8   1 1103.73   56.36
   9   8   1 1124.27   58.67
   9  -8   1 1136.13   54.60
   9   8   1 1051.47   54.76
   9  -8   2   20.43    4.97
   9   8   2   22.08    5.36
   9  -8   2   12.22    3.38
   9   8   2   18.94    4.05
   9  -8   3 1120.61   52.64
   9  -8   3  997.84   50.52
   9   8   3 1005.59   51.02
   9   8   3 1112.34   54.17
   9  -8   4    8.07    2.99
   9   8   4    5.28    3.20
  -9   8  -4    3.33    2.35
  -9  -8  -4    2.60    2.28
   9  -8   4   -0.44    1.93
   9   8   4    4.95    2.42
   9  -8   5  267.64   13.92
   9   8   5  260.98   14.13
  -9   8  -5  233.55   14.23
  -9  -8  -5  237.65   14.14
   9  -8   6    1.04    1.28
   9   8   6   -0.29    0.79
   9  -9 -11   15.66    2.13
   9  -9 -10   28.13    3.65
   9   9  -9   -0.67    1.43
   9  -9  -9    0.47    2.10
   9  -9  -9   -1.57    2.68
   9  -9  -8   89.88    6.92
   9   9  -8   74.63    6.82
   9  -9  -8   73.44    7.14
   9  -9  -7   14.71    3.72
   9  -9  -7   16.38    3.58
   9   9  -7   10.84    3.33
   9   9  -7   17.31    5.16
   9  -9  -6  942.95   44.70
   9   9  -6  871.41   44.72
   9  -9  -6  866.16   45.20
   9   9  -6  903.12   48.41
   9  -9  -5   54.71    7.82
   9  -9  -5   58.81    6.12
   9   9  -5   56.18    6.24
   9   9  -5   55.13    8.48
   9  -9  -5   58.95    6.79
   9   9  -4   30.56    6.45
   9   9  -4   35.33    7.65
   9  -9  -4   30.14    6.58
   9  -9  -4   25.30    5.22
   9   9  -3    3.45    4.03
   9   9  -3   11.01    5.29
   9  -9  -3   12.02    3.96
   9  -9  -3    5.40    4.42
   9  -9  -2  139.09    9.79
   9   9  -2  134.34   10.01
   9   9  -2  121.56    9.61
   9   9  -2  130.53   12.08
   9  -9  -2  126.85   11.81
   9  -9  -1    2.06    4.04
   9  -9  -1    1.18    2.68
   9   9  -1    2.60    2.44
   9   9  -1   -0.73    2.81
   9  -9  -1    0.84    3.80
   9   9  -1    2.09    3.35
   9   9  -1    2.67    4.66
   9  -9   0   23.36    5.62
   9  -9   0   15.56    3.48
   9   9   0   16.01    3.57
   9   9   0   20.91    4.33
   9   9   0   20.36    5.15
   9   9   0   21.93    6.16
   9  -9   0   15.45    4.53
   9  -9   1   11.47    3.13
   9   9   1    6.15    2.97
   9   9   1    2.54    3.46
   9   9   1   12.11    5.31
   9  -9   1    0.89    3.51
   9  -9   1    9.98    3.99
   9  -9   2  554.05   29.15
   9   9   2  571.99   29.66
   9   9   2  573.72   33.13
   9  -9   2  594.12   31.31
   9  -9   3   -2.22    2.10
   9   9   3   -1.00    2.57
   9   9   3   -0.94    3.44
   9  -9   3    1.30    2.60
   9  -9   4   29.74    3.55
   9   9   4   39.30    4.15
  -9   9  -4   43.21    4.19
  -9   9  -4   28.54    3.87
   9   9   4   31.34    4.91
   9  -9   5   -0.29    1.48
   9   9   5    0.32    0.68
   9   9   6   95.69    6.93
   9 -10 -10    3.44    1.95
   9 -10  -9  219.33    8.49
   9 -10  -9  216.44    8.21
   9  10  -8   20.73    4.95
   9 -10  -8   15.06    3.67
   9 -10  -8   15.53    3.54
   9 -10  -7   18.02    4.12
   9  10  -7   18.82    5.09
   9  10  -6    3.33    2.39
   9 -10  -6    2.73    2.84
   9  10  -6    2.24    4.29
   9  10  -5  175.69   11.88
   9  10  -5  198.21   15.74
   9 -10  -5  185.50   13.09
   9  10  -4    1.16    1.92
   9  10  -4    2.31    4.25
   9  10  -4   15.98    6.39
   9 -10  -4    3.14    4.35
   9 -10  -4    7.47    4.25
   9  10  -3   20.36    5.65
   9  10  -3   24.51    6.60
   9 -10  -3   13.60    4.44
   9 -10  -3   25.43    5.37
   9  10  -2    4.35    4.19
   9  10  -2   17.67    6.54
   9  10  -2    8.38    2.85
   9 -10  -2    6.15    4.27
   9 -10  -1  223.51   16.11
   9  10  -1  211.42   13.73
   9 -10  -1  201.92   14.88
   9  10  -1  232.34   14.87
   9  10  -1  264.16   17.08
   9  10  -1  233.62   18.07
   9 -10   0    1.83    3.51
   9  10   0    2.23    2.27
   9 -10   0    0.79    3.30
   9  10   0   -0.76    2.81
   9  10   0    1.28    4.70
   9  10   0    0.94    2.99
   9 -10   1  128.25   10.47
   9  10   1  112.02    8.48
   9 -10   1  112.21    9.58
   9  10   1  117.67   10.03
   9  10   1  104.13   11.32
   9  10   1  134.83   10.14
   9  10   2    6.23    2.40
   9 -10   2    2.10    2.87
   9  10   2    8.57    3.24
   9  10   2    1.07    3.74
   9  10   3   50.77    6.37
  -9  10  -3   51.16    4.33
  -9  10  -4    3.46    1.90
   9  10   4    2.77    2.88
   9  10   5  170.23   10.83
   9 -11 -10  312.09   16.04
   9 -11  -9   32.16    3.56
   9 -11  -9   32.77    3.59
   9  11  -8  482.30   26.96
   9 -11  -8  474.73   24.89
   9 -11  -8  460.50   24.75
   9  11  -7    3.98    3.57
   9 -11  -7    3.12    3.17
   9 -11  -7    6.07    2.96
   9 -11  -6  491.70   26.66
   9  11  -6  494.76   29.38
   9 -11  -5    2.25    3.12
   9  11  -5    1.12    4.01
   9  11  -5    4.64    4.05
   9 -11  -4  127.35   10.50
   9 -11  -4  134.03   11.69
   9  11  -4  134.51   12.91
   9  11  -4  124.04   12.00
   9 -11  -3   11.56    4.19
   9  11  -3    8.80    4.67
   9  11  -3    6.65    5.00
   9 -11  -3    1.00    4.00
   9  11  -2  299.24   20.55
   9  11  -2  332.81   22.69
   9 -11  -2  314.34   20.34
   9  11  -2  316.44   18.37
   9 -11  -1   11.94    4.05
   9  11  -1    4.95    2.69
   9 -11  -1   10.40    3.91
   9  11  -1   15.71    4.92
   9 -11   0  471.53   27.07
   9  11   0  459.87   26.38
   9 -11   0  484.81   26.76
   9  11   0  473.24   27.34
   9  11   0  512.27   30.09
   9 -11   1   -0.73    2.99
   9 -11   1   -0.71    2.94
   9  11   1    2.18    2.72
   9  11   1   -3.49    4.93
   9  11   1   -0.73    2.80
   9  11   2  396.69   24.53
   9  11   2  392.82   22.36
   9  11   3   -1.23    2.02
  -9  11  -3   -0.42    2.08
   9  11   3   -0.86    3.58
  -9  11  -4  463.66   23.79
   9  11   4  486.44   25.74
   9  11   5    0.87    1.62
   9 -12  -9   30.80    3.44
   9 -12  -9   33.88    3.61
   9  12  -8   21.97    4.61
   9 -12  -8   27.21    3.78
   9 -12  -8   18.18    3.42
   9  12  -7  331.51   20.11
   9 -12  -7  297.15   17.60
   9 -12  -7  306.63   17.63
   9 -12  -6    1.30    3.13
   9 -12  -6   -0.60    2.32
   9 -12  -5    4.96    3.12
   9  12  -5    6.42    4.29
   9  12  -5    6.38    3.91
   9 -12  -4   -1.54    3.19
   9  12  -4    3.23    4.14
   9  12  -4   -3.62    4.10
   9 -12  -3   80.72    8.21
   9  12  -3  107.14   10.27
   9  12  -3   81.66   10.25
   9 -12  -3   97.10    9.53
   9  12  -2   39.93    6.69
   9  12  -2   51.67    8.31
   9 -12  -2   31.52    5.97
   9  12  -2   53.42    5.57
   9 -12  -1  122.55   10.71
   9  12  -1  141.86   10.34
   9 -12  -1  134.49   10.61
   9  12  -1  125.89   11.19
   9 -12   0   19.48    4.23
   9  12   0   21.16    4.15
   9 -12   0   12.31    3.84
   9  12   0   15.75    5.87
   9  12   0   18.82    4.22
   9 -12   1   19.32    3.99
   9 -12   1   26.38    4.49
   9  12   1   33.34    6.40
   9  12   1   36.58    4.87
   9  12   2   -1.95    3.81
   9  12   2    1.92    2.71
  -9  12  -3  168.67   10.36
   9  12   3  178.53   12.78
   9  12   4    2.29    2.42
   9  12   4    3.84    2.04
   9  12   5   12.52    2.36
   9 -13  -9   10.72    2.05
   9 -13  -9    5.44    1.64
   9  13  -8  324.60   17.87
   9 -13  -8  268.54   15.82
   9 -13  -8  300.97   15.96
   9  13  -7    5.89    3.30
   9 -13  -7    1.01    2.56
   9 -13  -7    3.90    2.59
   9 -13  -6  172.31   11.63
   9 -13  -6  187.37   12.11
   9  13  -5   12.98    4.89
   9  13  -5   11.30    4.17
   9 -13  -5   13.04    3.54
   9  13  -4  995.29   50.85
   9  13  -4  925.22   49.78
   9 -13  -4  942.50   47.94
   9  13  -3    1.96    4.08
   9  13  -3   -1.19    4.48
   9 -13  -3    3.71    3.36
   9  13  -2  119.45    9.07
   9 -13  -2  125.94   10.16
   9  13  -2  138.38   11.43
   9  13  -2  120.79   12.25
   9 -13  -1   -0.74    3.25
   9  13  -1    0.63    2.15
   9 -13  -1    2.15    3.34
   9  13  -1    5.11    3.79
   9 -13   0  676.55   34.22
   9 -13   0  627.86   34.17
   9  13   0  653.74   34.71
   9  13   0  700.62   37.89
   9  13   0  652.21   34.20
   9 -13   1    1.80    2.63
   9  13   1    4.15    4.31
   9  13   1    0.64    2.28
   9  13   2  159.73   12.60
   9  13   2  153.40   10.67
  -9  13  -3    5.63    1.94
   9  13   3    2.89    3.01
   9  13   4  561.09   28.14
   9  13   4  532.81   27.53
   9  14  -8    7.01    2.63
   9 -14  -8    1.39    1.76
   9 -14  -8    2.48    1.62
   9  14  -7  662.97   32.64
   9 -14  -7  569.89   30.09
   9 -14  -7  599.34   30.03
   9 -14  -6   51.17    5.18
   9 -14  -6   54.46    5.54
   9 -14  -6   59.44    5.64
   9 -14  -5  606.07   24.67
   9  14  -5  652.01   27.90
   9 -14  -4   24.67    4.28
   9  14  -4   24.88    5.29
   9  14  -4   26.62    5.58
   9 -14  -3   59.14    6.64
   9  14  -3   69.00    7.73
   9  14  -3   77.12    9.15
   9 -14  -2    2.71    2.77
   9  14  -2    3.38    3.39
   9  14  -2    3.37    4.22
   9 -14  -1  486.73   26.85
   9  14  -1  498.64   26.49
   9  14  -1  509.09   27.70
   9 -14   0    1.81    2.86
   9  14   0    5.95    2.61
   9  14   0    1.05    4.20
   9  14   0    1.26    2.42
   9 -14   1  371.07   20.63
   9  14   1  411.90   23.73
   9  14   1  370.45   20.90
   9  14   2   -0.81    3.16
   9  14   2    3.11    2.34
   9  14   3  355.52   20.31
   9  14   4    1.93    1.70
   9 -15  -8    1.66    1.42
   9 -15  -8    0.23    1.28
   9 -15  -7    8.70    2.38
   9 -15  -7    6.01    1.94
   9 -15  -6    0.92    2.17
   9 -15  -6    3.81    2.14
   9 -15  -5    5.02    2.49
   9  15  -5    5.64    3.60
   9 -15  -4   99.18    8.07
   9  15  -4  110.05    9.60
   9  15  -4  102.87    9.27
   9  15  -3   29.59    5.27
   9  15  -3   33.52    6.00
   9 -15  -2   99.78    8.05
   9  15  -2   91.06    8.54
   9  15  -2   95.37    9.93
   9 -15  -1    8.68    3.10
   9  15  -1   10.56    3.24
   9 -15   0   82.76    7.00
   9  15   0   96.26    7.33
   9  15   0   75.89    8.67
   9 -15   1    1.35    2.22
   9  15   1    3.35    3.67
   9  15   1    0.50    1.93
   9  15   2   18.97    4.18
   9  15   2   19.18    3.02
   9  15   3   -1.58    2.28
   9 -16  -7  339.56   17.20
   9 -16  -7  311.26   16.69
   9 -16  -6   -0.34    1.73
   9 -16  -5  665.59   33.49
   9  16  -5  695.32   35.50
   9 -16  -4    2.90    2.23
   9  16  -4    3.55    3.16
   9  16  -4    4.05    2.71
   9  16  -3  246.09   15.52
   9  16  -3  243.06   16.18
   9 -16  -2   20.87    3.56
   9  16  -2   12.74    3.51
   9  16  -2   21.70    4.83
   9 -16  -1  213.72   12.89
   9  16  -1  205.19   13.09
   9  16  -1  222.50   15.20
   9 -16   0   30.60    3.90
   9  16   0   39.02    5.86
   9  16   1  221.65   14.70
   9  16   2   24.73    3.90
   9  16   3  353.01   18.76
   9 -17  -6   32.62    3.03
   9 -17  -5   -0.32    1.65
   9  17  -5    2.83    2.12
   9  17  -4   95.47    6.60
   9  17  -4    0.96    0.86
   9  17  -3    0.57    2.04
   9  17  -3    1.29    2.53
   9 -17  -2   12.56    2.80
   9  17  -2   19.01    3.51
   9  17  -2   19.36    4.35
   9 -17  -1    5.72    2.13
   9  17  -1    1.19    2.00
   9  17  -1    7.96    3.07
   9  17   0  294.85   17.84
   9  17   1    3.55    2.51
   9  17   2   95.89    7.20
   9 -18  -5   43.31    3.46
   9  18  -5   37.97    4.00
   9 -18  -4   -0.54    1.39
   9  18  -4    0.45    2.04
   9  18  -3  291.89   15.42
   9  18  -3  253.41   15.16
   9  18  -2   15.94    2.50
   9  18  -2   12.64    2.99
   9  18  -1   59.04    5.79
   9  18   1   17.08    2.87
  10   0 -10  403.37   22.32
  10   0 -10  415.81   21.28
  10   0  -9    3.34    3.03
  10   0  -9    8.06    2.85
  10   0  -8  282.02   17.62
  10   0  -8  277.31   16.11
  10   0  -7   50.24    6.69
  10   0  -7   48.54    5.26
  10   0  -6 1986.00   94.36
  10   0  -6 1919.54   91.52
  10   0  -5    5.06    3.90
  10   0  -5    9.74    2.52
  10   0  -4 1323.11   67.28
  10   0  -3    8.92    4.73
  10   0  -3    6.03    3.59
  10   0  -2 1436.00   71.15
  10   0  -2 1454.97   91.36
  10   0  -1    0.85    3.11
  10   0  -1   -8.12    9.74
  10   0   0  227.72   15.49
  10   0   1   23.91    4.66
  10   0   2  456.82   25.57
  10   0   3   24.96    4.51
  10   0   4 2662.42  124.33
 -10   0  -5   14.76    2.94
  10   0   5   21.75    3.31
  10   0   6  319.04   16.83
 -10   0  -6  315.17   17.18
  10   0   7    2.29    1.20
  10  -1 -10   27.26    3.26
  10  -1 -10   29.68    4.17
  10  -1  -9   60.59    6.48
  10  -1  -9   61.85    5.85
  10   1  -9   62.92    5.60
  10   1  -8   15.94    3.27
  10  -1  -8   17.59    3.59
  10  -1  -8   13.93    4.41
  10   1  -7    8.24    2.72
  10  -1  -7   15.58    3.40
  10  -1  -7   10.92    4.35
  10   1  -6    2.50    2.26
  10  -1  -6    0.58    2.50
  10  -1  -6    0.95    3.81
  10   1  -6    3.57    3.71
  10  -1  -5  461.45   26.46
  10   1  -5  417.99   25.61
  10  -1  -5  419.16   23.09
  10   1  -5  425.72   26.59
  10  -1  -4   -1.09    4.34
  10   1  -4    4.25    3.81
  10  -1  -4    0.52    2.14
  10  -1  -3   -4.02   11.15
  10   1  -3    9.26    5.00
  10  -1  -3    8.96    4.92
  10   1  -3    3.32    4.62
  10  -1  -3   16.95    4.36
  10  -1  -2   13.58    4.21
  10  -1  -2    4.05    9.73
  10  -1  -1  552.00   30.16
  10  -1  -1  483.92   45.01
  10  -1   0    0.80    3.46
  10  -1   1   44.75    6.10
  10  -1   2    8.48    3.69
  10  -1   3  239.25   15.09
  10  -1   4    5.08    3.14
 -10  -1  -5   43.55    4.98
  10  -1   5   62.41    5.37
 -10  -1  -6   11.75    2.60
  10  -1   6   15.10    2.60
  10  -1   7  103.71    6.21
  10  -2 -10   34.88    4.17
  10  -2 -10   46.78    4.97
  10  -2  -9    0.50    2.27
  10   2  -9   -0.41    0.86
  10  -2  -9    1.88    3.04
  10  -2  -8  145.41    7.72
  10  -2  -8  168.93    9.30
  10   2  -7    0.47    0.65
  10  -2  -7    7.75    3.20
  10  -2  -7    4.53    3.52
  10  -2  -6  847.22   47.45
  10   2  -6  898.40   46.91
  10   2  -6  906.02   48.59
  10  -2  -6  979.20   45.82
  10   2  -5   18.07    4.78
  10  -2  -5   11.36    4.85
  10   2  -5   13.48    5.12
  10  -2  -5   10.23    3.13
  10  -2  -4  706.81   38.54
  10   2  -4  721.06   38.28
  10  -2  -4  659.39   34.89
  10  -2  -3   11.70    3.00
  10   2  -3   -4.08    9.24
  10  -2  -3    3.91    9.40
  10  -2  -3   26.38    4.97
  10   2  -3   12.61    4.71
  10  -2  -3   10.08    5.02
  10   2  -2  245.07   29.88
  10  -2  -2  248.48   29.53
  10   2  -2  257.41   18.65
  10  -2  -2  284.37   17.69
  10  -2  -1   18.74    4.47
  10   2  -1    4.03    8.57
  10  -2  -1   11.70    8.28
  10  -2   0  195.55   13.78
  10  -2   1   -0.74    3.33
  10  -2   2  408.23   23.10
  10  -2   3    7.47    3.47
  10  -2   4  508.31   26.78
 -10   2  -5    3.61    2.07
 -10  -2  -5    3.51    2.06
  10  -2   5    5.39    2.22
  10  -2   6  136.64    8.35
 -10   2  -6  134.61    8.73
 -10  -2  -6  128.82    8.57
  10  -2   7   -0.62    0.98
  10   2   7    0.21    0.99
  10  -3 -10    2.06    2.06
  10  -3 -10    0.48    2.49
  10   3 -10    2.62    2.55
  10  -3  -9   84.00    7.08
  10  -3  -9   81.76    7.33
  10   3  -9   97.76    8.09
  10  -3  -8    0.57    2.46
  10  -3  -8    2.03    3.16
  10   3  -8    2.93    3.26
  10  -3  -7  632.80   34.01
  10   3  -7  657.32   34.50
  10   3  -7  585.24   35.10
  10  -3  -7  677.11   33.39
  10   3  -6    6.44    4.21
  10  -3  -6    3.88    3.73
  10   3  -6    3.05    2.59
  10  -3  -6    1.90    2.59
  10   3  -5 1684.84   85.38
  10  -3  -5 1751.19   85.08
  10   3  -5 1736.13   83.95
  10  -3  -5 1707.92   82.12
  10   3  -4   18.25    5.25
  10   3  -4   24.02    5.21
  10  -3  -4   18.46    5.23
  10  -3  -4   22.20    4.00
  10  -3  -3  308.70   18.85
  10   3  -3  314.74   19.29
  10   3  -3  274.19   20.20
  10   3  -2   -4.00   12.82
  10  -3  -2  -11.41   13.95
  10   3  -2    4.42    4.25
  10  -3  -2   11.16    3.83
  10   3  -2    3.36    3.43
  10   3  -1  338.85   23.26
  10   3  -1  367.75   24.69
  10  -3  -1  399.50   22.47
  10   3  -1  389.83   22.64
  10  -3   0    6.03    3.63
  10   3   0   10.34    3.89
  10  -3   1   45.99    5.97
  10   3   1   48.85    6.30
  10  -3   2   14.38    4.12
  10   3   2    9.74    3.38
  10  -3   3  904.47   44.91
  10   3   3  898.73   45.18
  10  -3   4   12.91    3.23
  10   3   4   14.61    3.27
  10  -3   5  349.79   17.74
  10   3   5  337.98   17.76
 -10   3  -5  298.69   17.79
 -10  -3  -5  308.89   17.74
  10  -3   6    8.75    2.06
  10   3   6   12.56    2.22
  10  -3   7  229.84   11.80
  10   3   7  237.07   11.89
  10  -4 -10   71.26    5.92
  10  -4 -10   72.38    6.11
  10   4 -10   79.55    6.45
  10  -4  -9   14.11    3.15
  10  -4  -9    8.85    3.18
  10   4  -9   16.45    3.85
  10  -4  -8   33.85    4.68
  10  -4  -8   38.31    5.38
  10   4  -8   28.73    4.99
  10   4  -7   28.58    5.67
  10  -4  -7   19.87    4.22
  10  -4  -7   23.57    4.68
  10   4  -7   19.72    4.88
  10  -4  -6   18.88    4.12
  10  -4  -6   14.53    4.85
  10   4  -6   17.09    5.05
  10   4  -6   15.69    4.64
  10  -4  -6   23.02    4.39
  10  -4  -5    2.07    4.13
  10   4  -5    2.46    2.71
  10  -4  -5    2.64    2.64
  10   4  -4   20.42    5.85
  10  -4  -4   14.98    3.72
  10   4  -4   14.17    4.34
  10   4  -3    2.26    4.04
  10  -4  -3    0.77    3.47
  10   4  -3   -0.82    3.71
  10   4  -2   22.99    5.82
  10  -4  -2   19.88    6.07
  10   4  -2   37.19    7.08
  10  -4  -2   24.42    5.13
  10   4  -2   44.72    6.21
  10   4  -1   21.70    5.37
  10   4  -1   21.09    6.50
  10  -4  -1   20.25    4.46
  10   4  -1   18.40    4.83
  10   4   0    3.54    4.13
  10  -4   0    7.18    3.31
  10   4   0    3.09    3.39
  10   4   1    2.18    3.79
  10  -4   1    1.35    3.00
  10   4   1   -1.46    3.03
  10  -4   2    8.03    2.98
  10   4   2    6.71    3.33
  10  -4   3    8.90    3.23
  10   4   3    8.41    3.10
  10  -4   4  422.42   22.76
  10   4   4  440.15   23.04
  10  -4   5    4.67    2.10
  10   4   5    4.50    2.05
 -10   4  -5    5.08    2.32
 -10  -4  -5    1.33    2.08
  10  -4   6    2.52    1.59
  10   4   6    1.76    1.36
  10  -5 -10    6.63    2.14
  10  -5  -9   44.99    5.00
  10  -5  -9   41.57    4.80
  10   5  -9   42.19    5.06
  10  -5  -8   23.94    4.24
  10   5  -8   17.25    4.34
  10  -5  -8   29.18    4.52
  10   5  -8   25.00    4.50
  10  -5  -7 1147.38   57.49
  10  -5  -7 1190.83   57.82
  10   5  -7 1264.02   58.55
  10   5  -7 1101.34   59.54
  10  -5  -6    1.92    4.00
  10  -5  -6    5.30    3.06
  10   5  -6    8.95    3.38
  10  -5  -6    5.44    3.18
  10   5  -6    1.06    4.33
  10  -5  -5  420.38   22.90
  10  -5  -5  424.96   25.15
  10   5  -5  371.37   22.58
  10   5  -4    1.13    3.93
  10   5  -4    0.87    3.26
  10  -5  -3 1116.79   51.91
  10   5  -3 1150.92   52.51
  10   5  -3  939.24   53.48
  10   5  -3  903.55   54.39
  10  -5  -3  959.21   53.43
  10  -5  -2   12.33    3.79
  10   5  -2   11.69    4.07
  10   5  -2    5.41    4.35
  10   5  -2   10.20    5.02
  10  -5  -2    7.62    5.17
  10  -5  -1   43.35    5.54
  10   5  -1   47.55    6.03
  10   5  -1   43.80    6.79
  10  -5  -1   31.43    6.34
  10   5  -1   43.16    7.36
  10  -5   0   38.77    5.52
  10   5   0   44.46    5.99
  10   5   0   43.41    7.39
  10  -5   1  292.56   18.23
  10   5   1  335.94   19.05
  10   5   1  328.55   21.36
  10  -5   2   25.40    4.24
  10   5   2   35.11    5.02
  10   5   2   36.77    6.10
  10  -5   3  372.56   20.54
  10   5   3  383.33   20.93
  10  -5   4   -0.44    2.08
  10   5   4    0.95    2.25
 -10   5  -5  528.26   27.05
 -10  -5  -5  509.90   26.86
  10  -5   5  519.04   26.54
  10   5   5  561.14   26.90
  10  -5   5  555.72   26.91
  10  -5   6    1.20    1.38
  10   5   6    1.29    1.26
  10  -6 -10   65.49    5.32
  10  -6  -9   22.24    3.46
  10   6  -9   22.73    3.78
  10  -6  -9   23.34    3.62
  10  -6  -8  334.44   18.88
  10   6  -8  354.07   19.45
  10   6  -8  328.43   20.32
  10  -6  -8  330.75   18.95
  10  -6  -7   24.95    4.58
  10   6  -7   32.22    5.02
  10  -6  -7   20.57    4.47
  10   6  -7   24.11    5.24
  10  -6  -6 1147.63   27.57
  10   6  -6 1149.86   23.94
  10  -6  -6 1200.80   23.39
  10  -6  -6 1171.77   23.60
  10   6  -6 1177.45   29.45
  10  -6  -5    3.47    3.33
  10   6  -4  728.23   40.13
  10  -6  -4  709.14   39.74
  10   6  -4  717.55   37.68
  10   6  -3    3.56    3.43
  10   6  -3    7.76    4.35
  10   6  -3    7.75    5.38
  10  -6  -3   10.73    5.09
  10  -6  -2  342.42   21.86
  10   6  -2  292.58   20.95
  10  -6  -2  359.43   19.79
  10   6  -2  321.19   19.71
  10   6  -1    9.02    4.12
  10   6  -1    6.13    4.63
  10  -6  -1   16.34    5.38
  10   6  -1    8.37    2.67
  10  -6  -1   17.33    3.80
  10   6  -1   13.81    4.06
  10  -6   0  201.33   12.67
  10   6   0  177.38   12.63
  10   6   0  183.76   13.77
  10   6   0  157.22   14.35
  10  -6   0  194.41   14.29
  10  -6   1   10.01    3.53
  10   6   1    4.61    3.03
  10  -6   1    2.61    3.49
  10   6   1    5.35    4.11
  10  -6   2  600.53   31.07
  10   6   2  607.56   31.50
  10   6   2  611.92   33.67
  10  -6   3   16.87    3.12
  10   6   3   18.30    3.51
  10  -6   4 1096.52   48.84
 -10   6  -4  935.58   48.16
 -10  -6  -4  972.25   48.16
  10  -6   4  973.71   47.69
  10   6   4 1022.12   48.11
  10  -6   5   16.10    2.34
  10   6   5   18.79    2.50
  10  -6   6  388.09   18.94
  10   6   6  390.81   19.08
  10  -7 -10    9.98    2.16
  10  -7  -9   30.11    3.94
  10  -7  -9   33.12    3.75
  10   7  -9   27.08    3.75
  10   7  -8    6.26    3.04
  10  -7  -8   10.22    3.25
  10  -7  -8   10.71    3.00
  10   7  -8   14.03    3.35
  10   7  -7  110.49    8.78
  10  -7  -7   97.38    6.93
  10  -7  -7   95.91    6.48
  10   7  -7   93.51    6.61
  10   7  -6    6.20    4.14
  10  -7  -6    6.98    2.96
  10  -7  -6    6.59    3.15
  10   7  -6    4.61    3.22
  10  -7  -6    3.33    3.07
  10  -7  -5   46.77    5.84
  10   7  -4    5.07    4.87
  10   7  -4    4.42    4.68
  10  -7  -4    1.48    2.78
  10  -7  -4    3.10    4.22
  10   7  -3   40.31    5.75
  10   7  -3   42.60    6.89
  10   7  -3   39.50    7.49
  10  -7  -3   34.44    6.49
  10  -7  -3   38.57    5.66
  10   7  -2    3.15    3.75
  10  -7  -2    3.88    3.22
  10  -7  -2   -1.03    4.03
  10  -7  -2   -0.64    2.80
  10   7  -2    3.47    3.24
  10   7  -1   14.69    4.95
  10   7  -1   14.58    5.29
  10  -7  -1   13.57    3.76
  10   7  -1   12.88    3.79
  10  -7  -1   14.74    4.90
  10   7  -1   23.89    3.83
  10  -7   0    5.26    2.74
  10   7   0    8.48    3.36
  10  -7   0    7.31    3.95
  10   7   0    9.68    3.93
  10   7   0    5.76    5.22
  10  -7   1    8.62    2.82
  10   7   1    9.76    3.30
  10  -7   1   11.56    4.09
  10   7   1    4.21    4.32
  10  -7   2    7.24    2.45
  10   7   2    2.74    2.53
  10  -7   2    2.17    3.06
  10   7   2    5.49    3.94
  10  -7   3    9.21    2.51
  10   7   3   12.71    2.84
  10  -7   3   12.46    3.43
  10  -7   4    4.45    1.90
  10   7   4    9.49    2.41
  10  -7   4    6.76    2.38
 -10   7  -4    4.19    1.80
 -10  -7  -4    8.09    2.42
  10  -7   5   32.11    3.06
  10   7   5   33.93    3.22
  10  -8  -9    0.41    2.09
  10   8  -8  316.48   17.71
  10  -8  -8  329.19   16.27
  10  -8  -8  316.85   15.52
  10   8  -7    3.66    3.59
  10  -8  -7    2.36    2.71
  10  -8  -7    1.38    1.17
  10  -8  -7    4.91    2.46
  10   8  -7    2.71    2.46
  10   8  -6 1162.58   58.25
  10  -8  -6 1191.87   55.92
  10  -8  -6 1181.90   55.00
  10   8  -6 1133.17   55.22
  10  -8  -6 1025.49   54.54
  10  -8  -5    0.69    3.22
  10  -8  -5    1.93    4.08
  10   8  -5    2.48    2.81
  10  -8  -5    3.39    2.79
  10   8  -4  622.65   36.46
  10   8  -4  675.09   37.86
  10  -8  -4  677.00   36.40
  10  -8  -4  641.96   34.34
  10   8  -3    9.99    5.01
  10   8  -3    9.62    4.46
  10  -8  -3    3.02    4.20
  10  -8  -3    9.83    3.89
  10   8  -2  738.37   40.45
  10  -8  -2  753.21   40.26
  10  -8  -2  728.59   38.55
  10  -8  -1   34.12    4.47
  10   8  -1   33.37    4.73
  10  -8  -1   25.18    5.39
  10   8  -1   36.41    4.55
  10   8  -1   38.90    6.31
  10   8  -1   37.14    7.27
  10  -8   0  245.82   14.39
  10   8   0  258.60   14.91
  10  -8   0  227.93   16.00
  10   8   0  235.35   14.84
  10   8   0  233.93   15.99
  10   8   0  224.21   17.44
  10  -8   1   -0.48    2.31
  10   8   1    1.09    2.47
  10  -8   1    0.77    3.02
  10   8   1   -0.63    2.19
  10   8   1    2.06    3.59
  10   8   2  938.73   47.30
  10  -8   2  872.57   43.80
  10   8   2  907.70   44.30
  10  -8   2  933.26   45.64
  10   8   3    1.40    2.85
  10  -8   3   -2.57    2.29
  10  -8   3    1.80    1.80
  10   8   3   -1.22    1.92
  10  -8   4  348.59   13.49
  10   8   4  176.19   12.38
  10  -9  -8    1.87    2.28
  10   9  -8    1.40    2.74
  10  -9  -7  345.44    9.79
  10  -9  -7  338.31   10.20
  10  -9  -7  350.34   11.52
  10   9  -7  349.42   14.52
  10  -9  -6    4.85    2.77
  10  -9  -6    5.57    2.45
  10   9  -6    6.68    2.77
  10  -9  -6    4.98    3.16
  10   9  -6    7.82    4.22
  10   9  -5   34.14    6.46
  10  -9  -5   31.10    4.67
  10  -9  -5   33.80    4.29
  10   9  -5   28.01    4.15
  10   9  -4   20.19    6.23
  10   9  -4   16.83    5.14
  10  -9  -4   28.10    4.66
  10  -9  -4   17.17    5.10
  10   9  -3  518.55   30.74
  10   9  -3  555.61   32.20
  10  -9  -3  543.39   29.01
  10  -9  -3  502.69   30.09
  10   9  -2    7.87    4.26
  10  -9  -2   12.97    4.83
  10   9  -1   40.69    4.89
  10   9  -1   46.17    6.30
  10   9  -1   49.26    7.94
  10  -9  -1   48.77    6.58
  10  -9  -1   47.91    5.98
  10   9  -1   40.32    4.90
  10   9   0    4.74    2.83
  10   9   0    7.73    4.59
  10  -9   0    1.59    3.60
  10  -9   0    2.28    2.13
  10   9   0    2.04    2.28
  10   9   0    4.88    2.54
  10   9   1   90.54    9.49
  10  -9   1   68.29    7.25
  10  -9   1   87.89    6.45
  10   9   1   72.74    6.47
  10   9   1   91.75    7.49
  10   9   2    5.95    3.68
  10  -9   2   12.63    3.17
  10  -9   2    8.17    2.12
  10   9   2    5.59    1.93
  10   9   2   16.30    3.45
  10   9   3  149.06    8.49
  10   9   3  145.84    7.27
  10   9   4    5.90    2.04
  10 -10  -8   -0.31    0.67
  10  10  -8   31.11    4.37
  10 -10  -7    1.72    2.15
  10 -10  -7   -3.56    2.58
  10  10  -7    1.64    3.22
  10 -10  -6  136.00    9.66
  10  10  -6  142.07   11.92
  10 -10  -6  150.11   10.27
  10  10  -5    0.99    3.79
  10 -10  -5    3.01    2.77
  10  10  -4  155.03   10.96
  10  10  -4  167.53   11.76
  10 -10  -4  147.90   10.07
  10 -10  -4  128.82    8.09
  10 -10  -3   10.71    4.15
  10 -10  -3   15.41    4.01
  10  10  -3   12.80    5.38
  10  10  -3   12.83    4.37
  10 -10  -2  336.10   20.05
  10  10  -2  294.73   19.82
  10 -10  -1    2.40    3.73
  10  10  -1    1.08    2.02
  10 -10  -1    2.05    2.89
  10  10  -1    0.85    3.04
  10  10  -1    1.13    4.15
  10  10   0   95.97    8.30
  10  10   0   83.70    9.45
  10 -10   0   96.88    8.20
  10  10   0   69.82    6.91
  10  10   1   -0.95    3.64
  10 -10   1    2.45    2.59
  10  10   1    3.41    2.41
  10  10   2   18.42    4.52
  10 -10   2   24.07    3.60
  10  10   2   26.27    3.93
  10  10   3    7.37    2.24
  10  10   3    8.51    2.98
  10  10   4  140.51    8.88
  10 -11  -9   64.30    4.57
  10 -11  -8    0.56    0.63
  10  11  -8   12.68    3.06
  10 -11  -7  314.00   17.51
  10  11  -7  364.64   20.21
  10 -11  -6    1.93    2.15
  10 -11  -6    0.53    2.61
  10  11  -5  431.03   24.43
  10 -11  -5  365.95   21.47
  10 -11  -5  415.73   22.14
  10 -11  -4    8.16    2.96
  10  11  -4   14.57    4.81
  10  11  -4    9.45    4.36
  10 -11  -3  615.80   32.60
  10 -11  -3  542.26   31.02
  10  11  -3  599.66   33.10
  10  11  -3  654.85   34.64
  10 -11  -2    1.56    3.31
  10  11  -2    8.66    3.86
  10 -11  -1  363.24   20.93
  10  11  -1  365.92   19.58
  10 -11  -1  306.24   19.87
  10  11  -1  378.21   21.49
  10  11  -1  403.04   23.72
  10  11   0   29.31    4.44
  10  11   0   33.98    6.08
  10 -11   0   29.42    4.48
  10  11   0   27.75    3.88
  10  11   1  184.42   13.43
  10 -11   1  165.01   10.81
  10  11   1  159.53   10.79
  10  11   2    9.57    2.53
  10  11   2   12.52    3.71
  10  11   3  449.25   23.79
  10  11   3  486.40   24.87
  10 -12  -8   36.54    3.52
  10  12  -8   35.23    4.06
  10 -12  -7   11.89    2.41
  10  12  -7   20.56    3.95
  10 -12  -6   94.21    7.10
  10  12  -5    4.24    3.66
  10 -12  -5    3.02    2.24
  10 -12  -5    1.58    2.63
  10 -12  -4   57.99    5.85
  10  12  -4   66.49    7.63
  10  12  -4   53.70    7.09
  10 -12  -3    1.82    2.43
  10  12  -3    1.01    3.86
  10  12  -3    1.68    3.37
  10  12  -2   92.52    8.67
  10  12  -2   94.10   10.04
  10 -12  -1    0.62    2.36
  10  12  -1    1.82    1.75
  10 -12  -1    1.17    2.90
  10  12  -1    1.38    2.47
  10  12  -1    0.99    3.73
  10  12   0   16.07    3.21
  10  12   0   26.73    5.59
  10 -12   0   19.04    3.51
  10  12   0   20.74    3.30
  10  12   1   30.90    3.93
  10  12   1   30.76    5.56
  10  12   2  142.36    9.49
  10  12   2  167.97   11.29
  10  12   3   17.97    3.08
  10 -13  -8    0.23    1.00
  10 -13  -7  179.15   10.32
  10 -13  -7  172.27   10.41
  10 -13  -6    5.34    2.36
  10 -13  -5  507.99   26.44
  10  13  -5  538.40   28.76
  10 -13  -4   -1.53    2.20
  10  13  -4   -0.81    2.83
  10  13  -4    1.55    2.83
  10 -13  -3   40.94    4.87
  10  13  -3   46.73    6.56
  10  13  -3   42.73    5.92
  10  13  -2   41.34    5.48
  10  13  -2   42.43    6.62
  10 -13  -1  779.54   37.81
  10  13  -1  725.38   37.99
  10  13   0    1.70    1.73
  10  13   0   -0.83    3.75
  10  13   1  105.13    7.50
  10  13   1  117.11    9.28
  10  13   2   -1.72    2.47
  10 -14  -7    0.99    1.19
  10  14  -7   -0.88    1.72
  10 -14  -6  381.49   19.09
  10 -14  -6  363.41   19.07
  10  14  -5    0.65    2.55
  10 -14  -4  416.31   22.29
  10  14  -4  434.78   23.95
  10  14  -4  442.58   23.97
  10 -14  -3   28.96    3.75
  10  14  -3   36.26    5.48
  10  14  -3   26.44    4.46
  10 -14  -2  245.93   15.13
  10  14  -2  283.88   16.18
  10  14  -2  292.03   17.69
  10 -14  -1   14.51    2.99
  10  14  -1   12.27    2.79
  10  14   0  187.78   13.13
  10  14   1    0.62    2.26
  10  14   2  155.46   10.08
  10 -15  -6    0.98    1.27
  10 -15  -6    1.48    1.17
  10 -15  -5   -0.62    1.70
  10 -15  -5    1.53    1.59
  10  15  -5    4.79    2.13
  10  15  -4   16.05    3.39
  10  15  -3   13.80    3.27
  10  15  -3   13.88    3.37
  10 -15  -2    2.40    1.85
  10  15  -2    3.71    2.07
  10  15  -2    2.71    2.82
  10  15   0   26.04    4.30
  10  15   1   63.12    5.91
  10 -16  -5   -1.10    1.06
  10  16  -5    1.59    1.74
  10 -16  -5    1.62    1.36
  10  16  -4  260.13   12.70
  10 -16  -4  178.21   10.86
  10  16  -3    7.58    2.33
  10  16  -3    8.85    2.53
  10  16  -2  311.26   17.61
  10  16   0  223.71   13.28
  10  16   1   35.78    3.71
  11   0  -9  348.12   19.03
  11   0  -8   29.20    4.48
  11   0  -7   70.43    6.92
  11   0  -6   23.71    4.73
  11   0  -6   23.98    4.73
  11   0  -5 1230.06   61.55
  11   0  -4   59.35    7.46
  11   0  -3 1226.10   62.06
  11   0  -2   17.68    4.11
  11   0  -2    1.93    3.95
  11   0  -1 1422.03   69.28
  11   0   0   -2.01    3.17
  11   0   1  122.95    9.37
  11   0   2   20.21    3.94
  11   0   3  463.31   24.21
 -11   0  -4   14.21    2.63
  11   0   4   14.14    2.64
  11   0   5  220.92   11.85
  11  -1  -9    1.40    2.37
  11  -1  -8   28.55    4.45
  11  -1  -7    1.93    2.96
  11  -1  -6   37.58    5.44
  11   1  -6   39.20    5.25
  11  -1  -6   27.29    5.23
  11  -1  -5   18.38    4.82
  11   1  -5   17.30    4.04
  11  -1  -4   11.23    4.52
  11   1  -4   11.78    4.07
  11   1  -3    0.95    3.67
  11  -1  -3    6.77    4.02
  11  -1  -2  451.03   26.87
  11   1  -2  422.95   26.62
  11  -1  -2  491.59   25.97
  11  -1  -1   10.46    3.81
  11  -1   0    5.91    3.49
  11  -1   1    1.81    2.90
  11  -1   2   11.25    3.19
  11  -1   3    1.37    2.45
 -11  -1  -4   24.63    3.42
  11  -1   4   26.69    3.36
  11  -1   5   11.97    1.96
  11  -2  -9  131.64    8.99
  11   2  -9  139.52    9.22
  11  -2  -8    1.86    0.86
  11  -2  -8    2.19    2.47
  11  -2  -7   -0.35    0.69
  11  -2  -7   45.17    5.12
  11  -2  -6   -0.37    0.78
  11  -2  -6    1.98    3.21
  11   2  -6    1.26    1.51
  11  -2  -6   -3.18    3.71
  11  -2  -5  214.88   14.74
  11   2  -5  191.58   13.71
  11   2  -4   28.70    5.42
  11  -2  -4   13.08    4.51
  11  -2  -3 1047.51   53.04
  11   2  -3 1004.68   52.68
  11   2  -2   30.20    6.05
  11  -2  -2   37.27    5.55
  11  -2  -1  352.40   23.28
  11  -2  -1  433.53   22.81
  11  -2   0    0.63    2.78
  11  -2   1  188.78   12.26
  11  -2   2    0.52    2.64
  11  -2   3  197.18   11.84
 -11   2  -4    0.80    1.87
 -11  -2  -4    3.54    2.09
  11  -2   4    5.60    2.15
  11  -2   5   73.10    4.88
  11   2   5   70.20    4.89
  11  -3  -9   24.15    3.24
  11   3  -9   19.31    3.14
  11  -3  -8   29.76    3.97
  11   3  -8   42.83    4.66
  11  -3  -7   42.27    4.88
  11   3  -7   45.73    5.34
  11  -3  -6   45.43    5.95
  11   3  -6   54.29    5.76
  11  -3  -6   53.61    5.60
  11  -3  -5   51.72    6.47
  11   3  -5   51.11    5.69
  11  -3  -4  360.66   22.75
  11   3  -4  384.64   22.29
  11   3  -3    4.44    3.34
  11  -3  -2 1015.26   49.62
  11   3  -2 1065.55   50.08
  11  -3  -1    3.21    3.08
  11   3  -1    4.07    3.17
  11  -3  -1    0.89    3.75
  11  -3   0  155.18   10.84
  11   3   0  166.11   11.27
  11  -3   0  146.90   11.83
  11  -3   1    1.10    2.78
  11   3   1    3.51    2.85
  11  -3   2  160.76   10.54
  11   3   2  167.52   10.85
  11  -3   3   -1.24    2.03
  11   3   3    2.16    2.27
  11  -3   4  234.43   13.10
  11   3   4  266.72   13.45
  11  -3   4  225.35   13.41
  11  -3   5   12.17    1.84
  11   3   5   16.23    2.02
  11  -4  -9    8.39    2.26
  11   4  -9    9.90    2.43
  11  -4  -9    8.40    1.75
  11  -4  -8   42.47    4.63
  11   4  -8   50.60    5.21
  11  -4  -7   15.89    3.61
  11   4  -7   20.12    3.74
  11  -4  -7   14.78    2.72
  11   4  -6   37.79    5.23
  11  -4  -6   33.36    4.81
  11  -4  -6   36.87    4.09
  11  -4  -5   88.38    5.33
  11  -4  -5   78.59    7.57
  11   4  -4   25.89    4.47
  11  -4  -4   36.37    6.26
  11   4  -3   66.39    7.35
  11   4  -2    2.61    3.55
  11  -4  -2    3.17    2.91
  11   4  -2    2.03    3.20
  11  -4  -2   -1.81    3.97
  11  -4  -1  159.68   10.85
  11   4  -1  159.91   11.05
  11  -4  -1  137.54   11.66
  11  -4   0   13.49    3.62
  11   4   0    3.65    2.99
  11  -4   0   11.09    3.82
  11  -4   1  212.72   13.19
  11   4   1  234.81   13.66
  11  -4   1  202.65   14.12
  11  -4   2    6.76    2.44
  11   4   2    3.41    2.54
  11  -4   2    9.22    3.24
  11  -4   3    1.52    1.99
  11   4   3    0.40    1.91
  11  -4   3    2.97    2.38
  11  -4   4    0.88    1.52
  11   4   4    0.31    1.44
  11  -4   4    4.79    1.88
  11  -4   5    6.14    1.26
  11   4   5    4.31    1.22
  11  -5  -9   -0.61    1.52
  11   5  -9   -1.00    1.63
  11  -5  -9    1.50    1.27
  11  -5  -8  465.22   23.47
  11   5  -8  459.20   23.73
  11  -5  -8  440.55   22.78
  11  -5  -7   15.04    3.20
  11   5  -7   17.46    3.66
  11  -5  -7   12.19    2.65
  11   5  -6   62.29    6.13
  11  -5  -6   48.62    5.56
  11  -5  -6   52.69    5.02
  11  -5  -5    1.69    3.46
  11  -5  -5    8.77    2.47
  11  -5  -4  755.00   18.92
  11   5  -4  864.56   26.23
  11  -5  -3   -0.40    0.79
  11   5  -3    3.01    2.88
  11  -5  -3    4.47    4.04
  11   5  -3    2.78    3.71
  11   5  -2  360.29   19.44
  11  -5  -2  308.17   20.38
  11   5  -2  317.97   20.02
  11  -5  -1    9.47    3.23
  11   5  -1   12.76    3.51
  11  -5  -1   14.86    4.51
  11  -5   0  255.48    9.64
  11   5   0  241.46    9.88
  11  -5   0  220.50   10.98
  11  -5   1    0.47    2.27
  11   5   1   -0.52    2.58
  11  -5   1    3.37    2.80
  11  -5   2  394.32   21.22
  11   5   2  426.53   21.68
  11  -5   2  408.87   22.41
  11  -5   3   10.46    2.28
  11   5   3    4.02    1.99
  11  -5   3    8.50    2.60
  11  -5   4   99.71    6.06
  11   5   4  105.86    6.23
  11  -6  -8    4.61    1.92
  11  -6  -8    6.07    1.93
  11   6  -8    4.71    2.02
  11  -6  -7  235.34   14.16
  11  -6  -7  282.94   14.95
  11   6  -7  268.31   15.10
  11  -6  -6   27.06    4.04
  11   6  -6   30.08    4.44
  11   6  -6   30.08    5.31
  11  -6  -6   25.18    3.55
  11   6  -5  403.47   20.98
  11  -6  -5  376.89   20.45
  11  -6  -5  347.26   19.68
  11  -6  -4   11.59    2.82
  11   6  -4   10.94    4.29
  11  -6  -4   14.51    4.25
  11  -6  -3  810.42   40.17
  11   6  -3  776.22   38.46
  11   6  -3  870.98   40.98
  11  -6  -2    1.67    3.40
  11   6  -2    3.63    2.79
  11  -6  -1  334.12   18.74
  11   6  -1  346.73   19.15
  11  -6  -1  330.42   20.35
  11  -6   0    2.33    2.24
  11   6   0   -0.52    2.50
  11   6   0    0.42    0.67
  11  -6   0    3.57    3.02
  11  -6   1  177.06   10.51
  11   6   1  175.01   10.73
  11   6   1  163.33   10.43
  11  -6   1  157.70   11.44
  11  -6   2    9.69    2.37
  11   6   2   13.98    2.68
  11   6   2    8.98    2.17
  11  -6   2   13.58    3.30
  11  -6   3  176.28   10.21
  11   6   3  198.91   10.59
  11  -6   3  176.18   10.80
  11  -6   4    6.76    1.34
  11   6   4    6.92    1.47
  11  -7  -8   97.27    4.75
  11  -7  -8   90.53    4.33
  11  -7  -7    0.75    1.83
  11  -7  -7    0.37    1.66
  11   7  -7   -0.41    1.90
  11  -7  -6    7.44    2.45
  11   7  -6    7.71    2.61
  11   7  -6   10.21    3.89
  11  -7  -6    8.83    2.48
  11   7  -5   -1.04    2.39
  11  -7  -5    3.77    2.42
  11  -7  -5    1.34    2.05
  11  -7  -4  139.53    9.45
  11   7  -4  159.04   12.15
  11  -7  -4  153.68   11.74
  11  -7  -3    1.74    2.06
  11  -7  -3    7.34    3.81
  11   7  -3    6.10    3.88
  11  -7  -2   47.92    6.37
  11   7  -2   52.58    6.54
  11   7  -2   36.27    4.99
  11  -7  -1    1.47    2.99
  11  -7   0    6.16    2.35
  11   7   0   10.20    2.62
  11  -7   0    6.61    3.26
  11   7   0   -0.40    0.79
  11  -7   1    6.51    2.14
  11   7   1    6.53    2.37
  11  -7   1    1.72    2.68
  11   7   1    3.29    1.93
  11  -7   2  232.88   12.56
  11   7   2  231.55   12.80
  11  -7   2  236.75   13.56
  11   7   2  226.83   13.05
  11  -7   3   -0.30    1.33
  11  -7   3    0.46    1.26
  11   7   3    0.25    1.16
  11  -8  -8   -0.56    1.43
  11  -8  -7  386.64   19.93
  11  -8  -6    2.12    1.86
  11   8  -6    0.39    0.84
  11   8  -6    0.75    2.80
  11  -8  -6    2.02    1.96
  11  -8  -5   75.04    6.19
  11   8  -5   77.35    6.37
  11  -8  -5   82.41    6.38
  11  -8  -4    0.89    2.07
  11   8  -4    1.84    2.02
  11  -8  -4    2.90    1.87
  11   8  -4    1.69    3.31
  11  -8  -4    0.76    3.35
  11  -8  -3 2528.84  108.84
  11   8  -3 2483.31  109.38
  11  -8  -2   10.22    3.86
  11   8  -2   11.60    3.85
  11  -8  -1  283.27   17.32
  11  -8   0   14.99    3.69
  11  -8   1  686.86   27.97
  11  -8   1  733.83   29.86
  11   8   1  717.19   28.78
  11  -8   2    1.52    1.80
  11  -8   2    3.05    1.48
  11   8   2   -0.26    0.55
  11  -9  -8   59.79    4.33
  11  -9  -7   25.32    2.99
  11  -9  -6   15.01    2.57
  11   9  -5    0.77    2.94
  11  -9  -5    1.23    2.20
  11   9  -4  312.25   18.04
  11  -9  -4  260.13   15.25
  11   9  -3    0.37    0.73
  11  -9  -3    2.65    1.78
  11   9  -3    5.40    3.38
  11  -9  -3    4.18    2.90
  11   9  -2  108.35    9.00
  11  -9  -2  102.09    8.65
  11   9  -1    5.30    3.89
  11  -9  -1    9.71    2.64
  11  -9   0   54.49    5.64
  11  -9   1   14.89    2.80
  11 -10  -7   48.10    3.94
  11 -10  -6   12.47    2.40
  11  10  -5  184.48   12.02
  11 -10  -5  144.82    9.44
  11  10  -4   22.43    4.53
  11 -10  -4   17.76    2.99
  11  10  -3  196.25   13.33
  11  10  -2   -0.64    2.51
  11 -10  -2    2.35    2.48
  11  10  -1  288.59   18.40
  11 -10  -1  291.38   16.69
  11  10   0   20.56    4.45
  11 -10   0   19.47    3.17
  11 -10   1  136.20    8.36
  11 -11  -7    0.23    1.16
  11 -11  -6  177.60   10.02
  11 -11  -5    0.25    0.61
  11 -11  -5   -0.33    1.61
  11  11  -5   -0.62    2.54
  11 -11  -4  458.58   25.09
  11  11  -4  622.80   28.17
  11  11  -3    5.57    2.68
  11  11  -2 1043.45   51.03
  11  11  -1   -0.74    2.77
  11 -12  -6   11.64    1.79
  11 -12  -5    9.75    1.95
  11  12  -5   13.74    3.26
  11 -12  -4    0.91    1.68
  11  12  -4    2.20    2.24
  11 -12  -3  323.29   18.55
  11  12  -3  480.99   21.17
  11  12  -1    2.57    2.63
  11 -13  -5    8.03    1.58
  11  13  -5   12.19    2.57
  11 -13  -4  141.23    8.87
  11  13  -4  222.75   11.11
  11 -13  -3    1.51    1.31
  11  13  -3    5.82    2.03
  12   0  -8  428.48   21.66
  12   0  -7   11.13    2.70
  12   0  -6  298.33   16.81
  12   0  -5   65.33    6.42
  12   0  -5   79.51    6.60
  12   0  -4  175.76   11.91
  12   0  -3   78.78    7.37
  12   0  -2 1380.53   67.08
  12   0  -1   23.86    3.79
  12   0  -1   19.98    4.25
  12   0   0  435.33   22.80
  12   0   1   -1.05    2.14
  12   0   1    2.33    1.99
  12   0   2  557.55   26.76
  12   0   2  518.96   27.36
  12   0   3    0.63    1.31
  12   0   3    3.53    1.43
  12  -1  -8   -1.29    1.62
  12  -1  -7   12.93    2.81
  12  -1  -6   -1.43    2.29
  12   1  -5   10.14    2.86
  12  -1  -5    5.81    2.73
  12  -1  -5    7.08    2.82
  12  -1  -4   19.40    3.93
  12   1  -4   12.04    3.34
  12   1  -3   12.98    3.79
  12  -1  -3   12.77    3.57
  12  -1  -2    1.34    2.73
  12   1  -2    1.98    2.80
  12  -1  -1  152.94    9.78
  12   1  -1  133.36   10.33
  12   1   0    1.19    2.38
  12  -1   0    2.17    2.15
  12  -1   0    2.93    2.65
  12  -1   1   44.03    4.23
  12  -1   1   33.87    4.49
  12   1   2    1.31    1.86
  12  -1   2    0.31    1.50
  12  -1   2    0.42    1.78
  12   1   3   29.24    3.20
  12  -1   3   35.35    3.02
  12  -1   3   30.27    3.12
  12  -2  -8  339.46   17.55
  12   2  -8  347.45   17.68
  12  -2  -7   21.27    3.13
  12   2  -7   10.23    2.60
  12   2  -6  133.13    8.98
  12  -2  -6  125.62    8.77
  12   2  -5   -0.44    0.93
  12  -2  -5    2.96    2.59
  12  -2  -5   -2.42    2.22
  12  -2  -4  150.80   10.93
  12   2  -4  154.89   10.46
  12   2  -3   -0.61    2.60
  12  -2  -3   -0.67    2.87
  12   2  -2  302.76   17.87
  12   2  -1   -0.63    2.79
  12  -2   0  356.30   18.21
  12  -2   0  317.46   18.84
  12   2   0  328.39   18.98
  12  -2   1    1.08    1.81
  12   2   1    2.25    1.94
  12  -2   1   -0.99    2.20
  12  -2   2  233.92   12.12
  12   2   2  217.42   12.05
  12  -2   2  208.99   12.58
  12   2   3    1.90    1.49
  12  -2   3    2.78    1.25
  12   2   3    3.70    1.27
  12  -2   3    2.41    1.29
  12  -3  -7  142.66    8.84
  12   3  -7  142.36    8.93
  12  -3  -6   44.26    4.50
  12   3  -6   38.22    4.42
  12  -3  -5   50.06    5.57
  12   3  -5   49.76    5.19
  12  -3  -5   56.33    5.20
  12  -3  -4   33.72    4.72
  12   3  -4   -0.48    1.22
  12  -3  -3  113.74    8.70
  12   3  -3   89.98    7.72
  12   3  -2   28.70    4.42
  12  -3  -1  361.87   20.72
  12   3  -1  375.02   20.71
  12   3   0   10.65    2.97
  12  -3   0    9.70    2.41
  12   3   0    6.99    2.45
  12  -3   0    5.95    2.73
  12  -3   1  327.00   16.94
  12   3   1  328.32   17.06
  12  -3   1  312.33   17.66
  12   3   1  320.46   17.98
  12  -3   2    1.35    1.38
  12   3   2   -0.28    1.33
  12  -3   2   -0.37    1.71
  12  -4  -7    2.82    1.61
  12   4  -7    2.69    1.68
  12   4  -6    9.77    2.53
  12  -4  -6   11.02    2.55
  12   4  -5   -0.89    2.44
  12  -4  -5   -0.83    2.13
  12  -4  -4   56.67    6.03
  12   4  -3    0.49    1.80
  12  -4  -2  170.27   11.42
  12   4  -2  157.35   10.78
  12  -4  -1    3.96    2.79
  12   4  -1    0.55    2.37
  12   4   0    3.66    2.56
  12  -4   0    5.25    2.07
  12   4   0    6.80    2.40
  12  -4   0    8.64    2.83
  12   4   1    4.21    2.22
  12  -4   1    0.30    1.58
  12   4   1   -0.32    1.76
  12  -4   1    4.30    2.06
  12  -4   2    0.94    1.23
  12   4   2    3.73    1.51
  12  -4   2    3.89    1.76
  12   5  -6    6.03    2.01
  12  -5  -6    7.49    2.06
  12   5  -5   70.13    5.64
  12  -5  -5   71.77    5.54
  12   5  -4    5.83    2.40
  12  -5  -4    6.87    2.18
  12  -5  -3  250.52   15.24
  12  -5  -2    9.14    3.12
  12   5  -2    5.57    2.28
  12  -5  -1  278.19   16.54
  12   5  -1  300.79   16.49
  12   5   0    8.44    2.47
  12  -5   0   10.30    2.76
  12  -5   1  444.73   23.38
  12   5   1  477.14   23.76
  12   5   2    0.34    1.52
  12  -5   2    0.27    1.15
  12  -6  -6  103.27    6.29
  12   6  -6   95.72    6.33
  12   6  -5   11.53    2.26
  12  -6  -5   11.00    2.16
  12   6  -4  146.26    9.16
  12  -6  -4  152.22    8.98
  12  -6  -3   72.27    6.47
  12  -6  -2  329.19   18.50
  12   6  -1   12.09    2.38
  12  -6  -1   16.99    3.24
  12  -6   0  707.79   34.99
  12   6   0  709.46   34.79
  12   6   1    8.19    2.14
  12  -6   1    7.32    1.90
  12   7  -4   -0.29    0.77
  12  -7  -4    1.02    1.24
  12  -7  -3  139.75    7.45
  12  -7  -3  154.47    9.25
  12  -7  -2    5.75    2.28
  12  -7  -1    2.17    2.08
  12  -7   0   -0.37    1.57
  12   7   0    0.30    0.59
  12  -7   1   26.94    2.78
  12  -8  -2  389.53   20.51
  12  -8  -1   -0.37    1.71
  12  -8   0 1191.32   55.87
  13   0  -4   28.77    2.81
  13   0  -3  526.76   25.71
  13   0  -2   10.23    2.01
  13   0  -1  187.65   10.47
  13  -1  -4    3.35    1.31
  13  -1  -3    3.64    1.48
  13  -1  -3    4.33    1.63
  13  -1  -2  129.00    7.96
  13  -1  -1    1.79    1.24
  13   2  -4    4.69    1.40
  13  -2  -4    8.76    1.60
  13   2  -3  191.53   10.49
  13  -2  -3  189.49   10.42
  13  -2  -3  206.19   11.01
  13  -2  -2    3.79    1.55
   0   0   0    0.00    0.00




TITL NH4Ce(SO4) in P2(1)/m
REM P2(1)/m (#11 in standard setting)
CELL 1.54184  10.439458  20.945032  11.610966  90.0000 100.5360  90.0000
ZERR   35.00   0.000152   0.000305   0.000157   0.0000   0.0014   0.0000
LATT  1
SYMM -x, y+1/2,-z
SFAC N O S Ce
UNIT 35.00 35.00 35.00 35.00
TREF
HKLF 4
END
_computing_structure_solution     'SHELXT 2018/2 (Sheldrick, 2018)'
_computing_structure_solution     'SHELXT 2018/2 (Sheldrick, 2018)'
_computing_structure_solution     'SHELXT 2018/2 (Sheldrick, 2018)'
;
_shelx_hkl_checksum                68099
_olex2_submission_special_instructions  'No special instructions were received'
_oxdiff_exptl_absorpt_empirical_details
;
Empirical correction (ABSPACK) includes:
- Absorption correction using spherical harmonics
- Frame scaling
;
# start Validation Reply Form
_vrf_PLAT306_nh46ceso45
;
PROBLEM: Isolated Oxygen Atom (H-atoms Missing ?) ....... O1AA Check
RESPONSE: Water molecules, H-atoms could not be located
;
_vrf_PLAT975_nh46ceso45
;
PROBLEM: Check Calcd Resid. Dens. 0.60A From O6AA 1.66 eA-3
RESPONSE: High q-peaks are common near heavy atoms
;
