data_nh48ceso46
_audit_creation_date               2021-09-08
_audit_creation_method
;
Olex2 1.3
(compiled 2020.11.12 svn.r5f609507 for OlexSys, GUI svn.r6272)
;
_shelx_SHELXL_version_number       '2018/3'
_audit_contact_author_address      ?
_audit_contact_author_email        ?
_audit_contact_author_name         ''
_audit_contact_author_phone        ?
_publ_contact_author_id_orcid      ?
_publ_section_references
;
Dolomanov, O.V., Bourhis, L.J., Gildea, R.J, Howard, J.A.K. & Puschmann, H.
 (2009), J. Appl. Cryst. 42, 339-341.

Sheldrick, G.M. (2015). Acta Cryst. C71, 3-8.
;
_chemical_name_common              ?
_chemical_name_systematic          ?
_chemical_formula_moiety           '2(Ce1 O24 S6), 5(O), 16(N)'
_chemical_formula_sum              'Ce2 N16 O53 S12'
_chemical_formula_weight           1737.12
_chemical_melting_point            ?
loop_
  _atom_type_symbol
  _atom_type_description
  _atom_type_scat_dispersion_real
  _atom_type_scat_dispersion_imag
  _atom_type_scat_source
 'Ce' 'Ce' -1.8482 9.6596
 'International Tables Vol C Tables 4.2.6.8 and 6.1.1.4'
 'N' 'N' 0.0311 0.0180 'International Tables Vol C Tables 4.2.6.8 and 6.1.1.4'
 'O' 'O' 0.0492 0.0322 'International Tables Vol C Tables 4.2.6.8 and 6.1.1.4'
 'S' 'S' 0.3331 0.5567 'International Tables Vol C Tables 4.2.6.8 and 6.1.1.4'

_shelx_space_group_comment
;
The symmetry employed for this shelxl refinement is uniquely defined
by the following loop, which should always be used as a source of
symmetry information in preference to the above space-group names.
They are only intended as comments.
;
_space_group_crystal_system        'trigonal'
_space_group_IT_number             147
_space_group_name_H-M_alt          'P -3'
_space_group_name_Hall             '-P 3'
loop_
  _space_group_symop_operation_xyz
 'x, y, z'
 '-y, x-y, z'
 '-x+y, -x, z'
 '-x, -y, -z'
 'y, -x+y, -z'
 'x-y, x, -z'

# end Validation Reply Form
_cell_length_a                     10.43400(10)
_cell_length_b                     10.43400(10)
_cell_length_c                     15.5285(2)
_cell_angle_alpha                  90
_cell_angle_beta                   90
_cell_angle_gamma                  120
_cell_volume                       1464.07(3)
_cell_formula_units_Z              1
_cell_measurement_reflns_used      7319
_cell_measurement_temperature      173.00(10)
_cell_measurement_theta_max        76.0450
_cell_measurement_theta_min        2.8560
_shelx_estimated_absorpt_T_max     0.482
_shelx_estimated_absorpt_T_min     0.111
_exptl_absorpt_coefficient_mu      17.070
_exptl_absorpt_correction_T_max    0.694
_exptl_absorpt_correction_T_min    0.229
_exptl_absorpt_correction_type     analytical
_exptl_absorpt_process_details
;
CrysAlisPro 1.171.41.108a (Rigaku Oxford Diffraction, 2021)
Analytical numeric absorption correction using a multifaceted crystal
model based on expressions derived by R.C. Clark & J.S. Reid.
(Clark, R. C. & Reid, J. S. (1995). Acta Cryst. A51, 887-897)
Spherical absorption correction
using equivalent radius and absorption coefficient.
Empirical absorption correction using spherical harmonics,
implemented in SCALE3 ABSPACK scaling algorithm.
;
_exptl_absorpt_special_details     ?
_exptl_crystal_colour              'clear orange'
_exptl_crystal_colour_lustre       clear
_exptl_crystal_colour_modifier     .
_exptl_crystal_colour_primary      orange
_exptl_crystal_density_diffrn      1.970
_exptl_crystal_density_meas        ?
_exptl_crystal_density_method      ?
_exptl_crystal_description         hexagonal
_exptl_crystal_F_000               844
loop_
  _exptl_crystal_face_index_h
  _exptl_crystal_face_index_k
  _exptl_crystal_face_index_l
  _exptl_crystal_face_perp_dist
 1 -2 1 0.1020
 -1 0 2 0.0994
 -2 2 1 0.0975
 0 1 -2 0.0552
 2 -2 -1 0.0806
 0 0 1 0.0228
 0 0 -1 0.0228
 1 5 1 0.0573
 -3 -3 -1 0.1274
 -7 3 -1 0.1086
 0 -6 0 0.1033
 -6 6 -1 0.1007

_exptl_crystal_size_max            0.23
_exptl_crystal_size_mid            0.17
_exptl_crystal_size_min            0.05
_exptl_transmission_factor_max     ?
_exptl_transmission_factor_min     ?
_diffrn_reflns_av_R_equivalents    0.0695
_diffrn_reflns_av_unetI/netI       0.0442
_diffrn_reflns_Laue_measured_fraction_full  0.999
_diffrn_reflns_Laue_measured_fraction_max  0.972
_diffrn_reflns_limit_h_max         12
_diffrn_reflns_limit_h_min         -12
_diffrn_reflns_limit_k_max         7
_diffrn_reflns_limit_k_min         -12
_diffrn_reflns_limit_l_max         19
_diffrn_reflns_limit_l_min         -19
_diffrn_reflns_number              10868
_diffrn_reflns_point_group_measured_fraction_full  0.999
_diffrn_reflns_point_group_measured_fraction_max  0.972
_diffrn_reflns_theta_full          67.684
_diffrn_reflns_theta_max           76.292
_diffrn_reflns_theta_min           2.846
_diffrn_ambient_temperature        173.00(10)
_diffrn_detector_area_resol_mean   10.0000
_diffrn_detector_type              HyPix
_diffrn_measured_fraction_theta_full  0.999
_diffrn_measured_fraction_theta_max  0.972
_diffrn_measurement_details
;
List of Runs (angles in degrees, time in seconds):

  # Type    Start    End  Width  t~exp~   \w     \q     \k     \f   Frames
--------------------------------------------------------------------------
  1  \w     94.00 129.00   0.50    0.14    --  106.29  15.00 -30.00   70
  2  \w    101.00 126.00   0.50    0.14    --  106.29  15.00   0.00   50
  3  \w    130.00 169.00   0.50    0.14    --  106.29  15.00   0.00   78
  4  \w    102.00 159.00   0.50    0.14    --  106.29  15.00 120.00  114
  5  \w     -4.00  26.00   0.50    0.05    --   47.52 -19.00 150.00   60
  6  \w     37.00  63.00   0.50    0.14    --  106.29 -61.00 120.00   52
  7  \w     34.00  69.00   0.50    0.14    --  106.29 -61.00  90.00   70
  8  \w     41.00  71.00   0.50    0.14    --  106.29 -61.00  30.00   60
  9  \w     37.00  69.00   0.50    0.14    --  106.29 -61.00   0.00   64
 10  \w     35.00  67.00   0.50    0.14    --  106.29 -64.00-120.00   64
 11  \w    108.00 168.00   0.50    0.14    --  106.29  92.00   1.00  120
 12  \w     99.00 127.00   0.50    0.14    --  106.29 125.00-180.00   56
 13  \w    150.00 175.00   0.50    0.14    --  106.29 125.00-180.00   50
 14  \w     52.00 106.00   0.50    0.14    --  106.29-100.00  69.00  108
 15  \w     -4.00  22.00   0.50    0.05    --  -47.52  19.00 -90.00   52
 16  \w    -26.00  22.00   0.50    0.05    --  -47.52  19.00   0.00   96
 17  \w    -26.00  28.00   0.50    0.05    --  -47.52  19.00  90.00  108
 18  \w    -50.00 -24.00   0.50    0.14    --  -91.75  45.00 120.00   52
 19  \w    -51.00 -20.00   0.50    0.14    --  -91.75  45.00  90.00   62
 20  \w    -74.00 -34.00   0.50    0.14    --  -91.75  92.00   1.00   80
 21  \w    -84.00 -48.00   0.50    0.14    --  -91.75 124.00-106.00   72
 22  \w    -81.00 -20.00   0.50    0.14    --  -91.75 100.00 174.00  122
 23  \w   -159.00 -78.00   0.50    0.14    --  -91.75 -61.00 -60.00  162
 24  \w   -120.00 -94.00   0.50    0.05    --  -47.52 -77.00   0.00   52
 25  \w   -119.00 -85.00   0.50    0.05    --  -47.52 -77.00  30.00   68
 26  \w   -100.00 -67.00   0.50    0.05    --  -47.52-147.00   8.00   66
 27  \w   -120.00 -95.00   0.50    0.05    --  -47.52-131.00 -92.00   50
;
_diffrn_measurement_device         'four-circle diffractometer'
_diffrn_measurement_device_type    'XtaLAB Synergy, Dualflex, HyPix'
_diffrn_measurement_method         '\w scans'
_diffrn_radiation_type             CuK\a
_diffrn_radiation_wavelength       1.54184
_diffrn_source                     ?
_reflns_Friedel_coverage           0.000
_reflns_Friedel_fraction_full      .
_reflns_Friedel_fraction_max       .
_reflns_number_gt                  1937
_reflns_number_total               2003
_reflns_special_details
;
 Reflections were merged by SHELXL according to the crystal
 class for the calculation of statistics and refinement.
 
 Structure factors included contributions from the .fab file.
 
 _reflns_Friedel_fraction is defined as the number of unique
 Friedel pairs measured divided by the number that would be
 possible theoretically, ignoring centric projections and
 systematic absences.
;
_reflns_threshold_expression       'I > 2\s(I)'
_computing_cell_refinement         'CrysAlisPro 1.171.41.108a (Rigaku OD, 2021)'
_computing_data_collection         'CrysAlisPro 1.171.41.108a (Rigaku OD, 2021)'
_computing_data_reduction          'CrysAlisPro 1.171.41.108a (Rigaku OD, 2021)'
_computing_molecular_graphics      'Olex2 1.3 (Dolomanov et al., 2009)'
_computing_publication_material    'Olex2 1.3 (Dolomanov et al., 2009)'
_computing_structure_refinement    'SHELXL 2018/3 (Sheldrick, 2015)'
_computing_structure_solution      'SHELXT 2018/2 (Sheldrick, 2018)'
_refine_diff_density_max           3.783
_refine_diff_density_min           -2.013
_refine_diff_density_rms           0.182
_refine_ls_extinction_coef         .
_refine_ls_extinction_method       none
_refine_ls_goodness_of_fit_ref     1.074
_refine_ls_hydrogen_treatment      undef
_refine_ls_matrix_type             full
_refine_ls_number_parameters       137
_refine_ls_number_reflns           2003
_refine_ls_number_restraints       0
_refine_ls_R_factor_all            0.0482
_refine_ls_R_factor_gt             0.0474
_refine_ls_restrained_S_all        1.074
_refine_ls_shift/su_max            0.001
_refine_ls_shift/su_mean           0.000
_refine_ls_structure_factor_coef   Fsqd
_refine_ls_weighting_details      
 'w=1/[\s^2^(Fo^2^)+(0.0776P)^2^+5.6161P] where P=(Fo^2^+2Fc^2^)/3'
_refine_ls_weighting_scheme        calc
_refine_ls_wR_factor_gt            0.1265
_refine_ls_wR_factor_ref           0.1271
_refine_special_details            ?
_olex2_refinement_description
;
1. Uiso/Uaniso restraints and constraints
Uanis(O9) = Uanis(O13)
2. Others
 Fixed Sof: O13(0.7) O7(0.3) O2(0.7) O9(0.3)
;
_atom_sites_solution_hydrogens     .
_atom_sites_solution_primary       dual
_atom_sites_solution_secondary     ?
loop_
  _atom_site_label
  _atom_site_type_symbol
  _atom_site_fract_x
  _atom_site_fract_y
  _atom_site_fract_z
  _atom_site_U_iso_or_equiv
  _atom_site_adp_type
  _atom_site_occupancy
  _atom_site_site_symmetry_order
  _atom_site_calc_flag
  _atom_site_refinement_flags_posn
  _atom_site_refinement_flags_adp
  _atom_site_refinement_flags_occupancy
  _atom_site_disorder_assembly
  _atom_site_disorder_group
 Ce1 Ce 0.666667 0.333333 0.73082(3) 0.01380(18) Uani 1 3 d S T P . .
 S1 S 0.42811(13) 0.36876(14) 0.63119(8) 0.0198(3) Uani 1 1 d . . . . .
 S2 S 0.62600(17) 0.60379(15) 0.86607(9) 0.0264(3) Uani 1 1 d . . . . .
 O1 O 0.5938(4) 0.4482(4) 0.6212(2) 0.0214(8) Uani 1 1 d . . . . .
 O4 O 0.6266(5) 0.4731(5) 0.8282(3) 0.0275(9) Uani 1 1 d . . . . .
 O6 O 0.4036(4) 0.2725(4) 0.7075(2) 0.0247(8) Uani 1 1 d . . . . .
 O8 O 0.3783(5) 0.4738(5) 0.6483(3) 0.0368(10) Uani 1 1 d . . . . .
 O10 O 0.3581(5) 0.2808(5) 0.5555(3) 0.0363(11) Uani 1 1 d . . . . .
 O12 O 0.4760(6) 0.5669(7) 0.8833(4) 0.0571(15) Uani 1 1 d . . . . .
 O13 O 0.7035(10) 0.6239(9) 0.9506(5) 0.0428(19) Uani 0.7 1 d . . P A 2
 O7 O 0.633(3) 0.697(2) 0.7897(15) 0.052(6) Uani 0.3 1 d . . P A 2
 O2 O 0.7169(10) 0.7325(9) 0.8113(6) 0.0381(19) Uani 0.7 1 d . . P A 1
 O9 O 0.723(3) 0.682(2) 0.9309(14) 0.0428(19) Uani 0.3 1 d . . P A 1
 O5 O 1.000000 1.000000 1.000000 0.0108(14) Uiso 1 6 d S . P . .
 N1 N 1.000000 1.000000 0.7474(6) 0.0265(17) Uani 1 3 d S T P . .
 N4 N 0.7374(6) 0.7709(6) 0.6216(3) 0.0310(11) Uani 1 1 d . . . . .
 O11 O 0.333333 0.666667 0.7658(6) 0.064(3) Uani 1 3 d S T P . .
 O3 O 0.333333 0.666667 0.5345(6) 0.056(3) Uani 1 3 d S T P . .
 N2 N 1.0050(7) 0.7449(8) 0.8771(4) 0.0473(15) Uani 1 1 d . . . . .
 N3 N 0.333333 0.666667 1.0023(5) 0.035(2) Uani 1 3 d S T P . .

loop_
  _atom_site_aniso_label
  _atom_site_aniso_U_11
  _atom_site_aniso_U_22
  _atom_site_aniso_U_33
  _atom_site_aniso_U_23
  _atom_site_aniso_U_13
  _atom_site_aniso_U_12
 Ce1 0.0131(2) 0.0131(2) 0.0151(3) 0.000 0.000 0.00657(11)
 S1 0.0175(6) 0.0210(6) 0.0235(6) 0.0018(5) -0.0016(4) 0.0114(5)
 S2 0.0334(7) 0.0217(6) 0.0265(7) -0.0014(5) 0.0093(5) 0.0156(6)
 O1 0.0178(18) 0.0197(18) 0.0280(19) 0.0066(14) -0.0015(14) 0.0103(15)
 O4 0.034(2) 0.026(2) 0.0278(19) -0.0032(16) 0.0056(16) 0.0186(18)
 O6 0.0236(19) 0.0226(19) 0.0270(19) 0.0050(15) 0.0008(15) 0.0109(17)
 O8 0.041(3) 0.039(3) 0.046(3) 0.003(2) 0.002(2) 0.031(2)
 O10 0.034(2) 0.034(2) 0.029(2) -0.0026(18) -0.0127(18) 0.008(2)
 O12 0.043(3) 0.076(4) 0.071(4) -0.007(3) 0.011(3) 0.043(3)
 O13 0.054(4) 0.036(5) 0.026(4) -0.007(3) -0.003(3) 0.014(5)
 O7 0.089(18) 0.036(12) 0.058(13) 0.026(10) 0.039(13) 0.051(13)
 O2 0.046(5) 0.026(4) 0.041(4) 0.002(3) 0.018(4) 0.017(4)
 O9 0.054(4) 0.036(5) 0.026(4) -0.007(3) -0.003(3) 0.014(5)
 N1 0.022(3) 0.022(3) 0.034(5) 0.000 0.000 0.0112(13)
 N4 0.035(3) 0.027(3) 0.034(3) -0.002(2) -0.003(2) 0.018(2)
 O11 0.074(5) 0.074(5) 0.044(6) 0.000 0.000 0.037(3)
 O3 0.072(4) 0.072(4) 0.024(4) 0.000 0.000 0.036(2)
 N2 0.028(3) 0.054(4) 0.051(4) 0.009(3) -0.005(3) 0.014(3)
 N3 0.045(3) 0.045(3) 0.015(4) 0.000 0.000 0.0227(17)

_geom_special_details
;
 All esds (except the esd in the dihedral angle between two l.s. planes)
 are estimated using the full covariance matrix.  The cell esds are taken
 into account individually in the estimation of esds in distances, angles
 and torsion angles; correlations between esds in cell parameters are only
 used when they are defined by crystal symmetry.  An approximate (isotropic)
 treatment of cell esds is used for estimating esds involving l.s. planes.
;
loop_
  _geom_bond_atom_site_label_1
  _geom_bond_atom_site_label_2
  _geom_bond_distance
  _geom_bond_site_symmetry_2
  _geom_bond_publ_flag
 Ce1 S1 3.1058(12) 3_665 ?
 Ce1 S1 3.1058(12) 2_655 ?
 Ce1 S1 3.1057(12) . ?
 Ce1 O1 2.414(4) 2_655 ?
 Ce1 O1 2.414(4) 3_665 ?
 Ce1 O1 2.414(3) . ?
 Ce1 O4 2.280(4) 2_655 ?
 Ce1 O4 2.280(4) 3_665 ?
 Ce1 O4 2.280(4) . ?
 Ce1 O6 2.515(4) 3_665 ?
 Ce1 O6 2.515(4) . ?
 Ce1 O6 2.515(4) 2_655 ?
 S1 O1 1.505(4) . ?
 S1 O6 1.491(4) . ?
 S1 O8 1.453(4) . ?
 S1 O10 1.444(4) . ?
 S2 O4 1.488(4) . ?
 S2 O12 1.437(5) . ?
 S2 O13 1.501(9) . ?
 S2 O7 1.51(2) . ?
 S2 O2 1.468(9) . ?
 S2 O9 1.37(2) . ?

loop_
  _geom_angle_atom_site_label_1
  _geom_angle_atom_site_label_2
  _geom_angle_atom_site_label_3
  _geom_angle
  _geom_angle_site_symmetry_1
  _geom_angle_site_symmetry_3
  _geom_angle_publ_flag
 S1 Ce1 S1 97.34(3) 3_665 . ?
 S1 Ce1 S1 97.34(3) 2_655 . ?
 S1 Ce1 S1 97.34(3) 2_655 3_665 ?
 O1 Ce1 S1 69.08(9) . 3_665 ?
 O1 Ce1 S1 100.59(10) . 2_655 ?
 O1 Ce1 S1 100.59(10) 3_665 . ?
 O1 Ce1 S1 69.08(9) 2_655 . ?
 O1 Ce1 S1 69.08(9) 3_665 2_655 ?
 O1 Ce1 S1 28.26(9) 2_655 2_655 ?
 O1 Ce1 S1 100.59(10) 2_655 3_665 ?
 O1 Ce1 S1 28.26(9) 3_665 3_665 ?
 O1 Ce1 S1 28.26(9) . . ?
 O1 Ce1 O1 75.74(14) 3_665 2_655 ?
 O1 Ce1 O1 75.74(14) 2_655 . ?
 O1 Ce1 O1 75.74(14) 3_665 . ?
 O1 Ce1 O6 56.55(12) 2_655 2_655 ?
 O1 Ce1 O6 126.12(13) 3_665 . ?
 O1 Ce1 O6 126.13(13) 2_655 3_665 ?
 O1 Ce1 O6 56.55(12) 3_665 3_665 ?
 O1 Ce1 O6 69.95(13) 3_665 2_655 ?
 O1 Ce1 O6 56.55(12) . . ?
 O1 Ce1 O6 69.95(13) . 3_665 ?
 O1 Ce1 O6 126.13(13) . 2_655 ?
 O1 Ce1 O6 69.95(13) 2_655 . ?
 O4 Ce1 S1 101.96(11) 3_665 2_655 ?
 O4 Ce1 S1 160.69(11) 3_665 . ?
 O4 Ce1 S1 80.80(11) . . ?
 O4 Ce1 S1 101.97(11) . 3_665 ?
 O4 Ce1 S1 160.69(11) . 2_655 ?
 O4 Ce1 S1 101.96(11) 2_655 . ?
 O4 Ce1 S1 80.80(11) 3_665 3_665 ?
 O4 Ce1 S1 80.81(11) 2_655 2_655 ?
 O4 Ce1 S1 160.69(11) 2_655 3_665 ?
 O4 Ce1 O1 130.22(14) 2_655 . ?
 O4 Ce1 O1 144.27(14) . 2_655 ?
 O4 Ce1 O1 86.91(14) . . ?
 O4 Ce1 O1 144.26(14) 3_665 . ?
 O4 Ce1 O1 144.27(14) 2_655 3_665 ?
 O4 Ce1 O1 86.91(14) 2_655 2_655 ?
 O4 Ce1 O1 86.91(14) 3_665 3_665 ?
 O4 Ce1 O1 130.22(14) . 3_665 ?
 O4 Ce1 O1 130.22(14) 3_665 2_655 ?
 O4 Ce1 O4 80.80(16) 3_665 . ?
 O4 Ce1 O4 80.80(16) 3_665 2_655 ?
 O4 Ce1 O4 80.80(16) 2_655 . ?
 O4 Ce1 O6 74.40(15) 3_665 3_665 ?
 O4 Ce1 O6 73.69(14) . 3_665 ?
 O4 Ce1 O6 74.40(14) 2_655 2_655 ?
 O4 Ce1 O6 146.72(14) 3_665 . ?
 O4 Ce1 O6 74.40(14) . . ?
 O4 Ce1 O6 146.72(14) 2_655 3_665 ?
 O4 Ce1 O6 73.69(14) 3_665 2_655 ?
 O4 Ce1 O6 73.69(14) 2_655 . ?
 O4 Ce1 O6 146.72(14) . 2_655 ?
 O6 Ce1 S1 125.57(9) 3_665 2_655 ?
 O6 Ce1 S1 28.35(9) 3_665 3_665 ?
 O6 Ce1 S1 94.78(10) 2_655 3_665 ?
 O6 Ce1 S1 125.57(9) . 3_665 ?
 O6 Ce1 S1 125.57(9) 2_655 . ?
 O6 Ce1 S1 28.35(9) 2_655 2_655 ?
 O6 Ce1 S1 94.78(10) . 2_655 ?
 O6 Ce1 S1 28.35(9) . . ?
 O6 Ce1 S1 94.78(10) 3_665 . ?
 O6 Ce1 O6 117.96(4) 2_655 . ?
 O6 Ce1 O6 117.96(4) 3_665 . ?
 O6 Ce1 O6 117.96(4) 2_655 3_665 ?
 O1 S1 Ce1 49.40(14) . . ?
 O6 S1 Ce1 53.23(16) . . ?
 O6 S1 O1 102.5(2) . . ?
 O8 S1 Ce1 127.5(2) . . ?
 O8 S1 O1 110.4(3) . . ?
 O8 S1 O6 110.9(2) . . ?
 O10 S1 Ce1 120.7(2) . . ?
 O10 S1 O1 110.0(3) . . ?
 O10 S1 O6 110.9(2) . . ?
 O10 S1 O8 111.7(3) . . ?
 O4 S2 O13 103.0(4) . . ?
 O4 S2 O7 105.0(8) . . ?
 O12 S2 O4 109.4(3) . . ?
 O12 S2 O13 108.3(4) . . ?
 O12 S2 O7 90.9(10) . . ?
 O12 S2 O2 118.2(5) . . ?
 O13 S2 O7 138.2(12) . . ?
 O2 S2 O4 108.2(4) . . ?
 O9 S2 O4 119.8(11) . . ?
 O9 S2 O12 113.7(11) . . ?
 O9 S2 O2 86.2(10) . . ?
 S1 O1 Ce1 102.34(18) . . ?
 S2 O4 Ce1 159.2(3) . . ?
 S1 O6 Ce1 98.42(19) . . ?

loop_
  _geom_torsion_atom_site_label_1
  _geom_torsion_atom_site_label_2
  _geom_torsion_atom_site_label_3
  _geom_torsion_atom_site_label_4
  _geom_torsion
  _geom_torsion_site_symmetry_1
  _geom_torsion_site_symmetry_2
  _geom_torsion_site_symmetry_3
  _geom_torsion_site_symmetry_4
  _geom_torsion_publ_flag
 O1 S1 O6 Ce1 -4.0(2) . . . . ?
 O6 S1 O1 Ce1 4.2(2) . . . . ?
 O8 S1 O1 Ce1 122.4(2) . . . . ?
 O8 S1 O6 Ce1 -121.8(2) . . . . ?
 O10 S1 O1 Ce1 -113.8(2) . . . . ?
 O10 S1 O6 Ce1 113.4(3) . . . . ?
 O12 S2 O4 Ce1 119.6(8) . . . . ?
 O13 S2 O4 Ce1 -125.5(8) . . . . ?
 O7 S2 O4 Ce1 23.2(14) . . . . ?
 O2 S2 O4 Ce1 -10.4(9) . . . . ?
 O9 S2 O4 Ce1 -106.6(13) . . . . ?

_shelx_res_file
;
TITL nh4-ce(so4)6_a.res in P-3
    nh48ceso46.res
    created by SHELXL-2018/3 at 11:47:35 on 25-Aug-2021
REM Old TITL NH4-Ce(SO4)6 in P3
REM SHELXT solution in P-3: R1 0.087, Rweak 0.017, Alpha 0.041
REM <I/s> 0.000 for 0 systematic absences, Orientation as input
REM Formula found by SHELXT: N9 O25 S7 Ce
CELL 1.54184 10.434 10.434 15.5285 90 90 120
ZERR 1 0.0001 0.0001 0.0002 0 0 0
LATT 1
SYMM -Y,+X-Y,+Z
SYMM +Y-X,-X,+Z
SFAC Ce N O S
UNIT 2 16 53 12
EADP O9 O13

L.S. 99
PLAN  12
SIZE 0.05 0.17 0.23
TEMP -100.15(10)
CONF
list 4
MORE -1
ABIN
fmap 2
acta
REM <olex2.extras>
REM <HklSrc "%./nh48ceso46.hkl">
REM </olex2.extras>

WGHT    0.077600    5.616100
FVAR       0.39724
CE1   1    0.666667    0.333333    0.730818    10.33333    0.01313    0.01313 =
         0.01514    0.00000    0.00000    0.00657
S1    4    0.428115    0.368760    0.631188    11.00000    0.01746    0.02097 =
         0.02349    0.00183   -0.00158    0.01140
S2    4    0.625999    0.603792    0.866068    11.00000    0.03337    0.02173 =
         0.02652   -0.00141    0.00928    0.01560
O1    3    0.593759    0.448233    0.621165    11.00000    0.01775    0.01970 =
         0.02801    0.00662   -0.00154    0.01032
O4    3    0.626650    0.473124    0.828196    11.00000    0.03384    0.02578 =
         0.02777   -0.00317    0.00561    0.01859
O6    3    0.403606    0.272461    0.707508    11.00000    0.02359    0.02257 =
         0.02698    0.00502    0.00076    0.01085
O8    3    0.378305    0.473809    0.648345    11.00000    0.04090    0.03859 =
         0.04641    0.00332    0.00212    0.03150
O10   3    0.358062    0.280805    0.555525    11.00000    0.03420    0.03378 =
         0.02885   -0.00263   -0.01265    0.00801
O12   3    0.476043    0.566940    0.883297    11.00000    0.04260    0.07598 =
         0.07117   -0.00718    0.01142    0.04342
PART 2
O13   3    0.703548    0.623885    0.950631    10.70000    0.05434    0.03635 =
         0.02626   -0.00732   -0.00346    0.01409
O7    3    0.633329    0.697148    0.789732    10.30000    0.08927    0.03572 =
         0.05793    0.02618    0.03943    0.05115
PART 1
O2    3    0.716924    0.732497    0.811261    10.70000    0.04567    0.02594 =
         0.04126    0.00190    0.01807    0.01688
O9    3    0.722820    0.682155    0.930931    10.30000    0.05434    0.03635 =
         0.02626   -0.00732   -0.00346    0.01409

PART 0
O5    3    1.000000    1.000000    1.000000    10.16667    0.01081

N1    2    1.000000    1.000000    0.747396    10.33333    0.02249    0.02249 =
         0.03437    0.00000    0.00000    0.01125
N4    2    0.737443    0.770948    0.621579    11.00000    0.03519    0.02717 =
         0.03365   -0.00245   -0.00336    0.01780
O11   3    0.333333    0.666667    0.765789    10.33333    0.07427    0.07427 =
         0.04389    0.00000    0.00000    0.03713
O3    3    0.333333    0.666667    0.534463    10.33333    0.07241    0.07241 =
         0.02383    0.00000    0.00000    0.03621
N2    2    1.005032    0.744884    0.877112    11.00000    0.02806    0.05369 =
         0.05116    0.00883   -0.00514    0.01361
N3    2    0.333333    0.666667    1.002277    10.33333    0.04534    0.04534 =
         0.01520    0.00000    0.00000    0.02267
HKLF 4




REM  nh4-ce(so4)6_a.res in P-3
REM wR2 = 0.1271, GooF = S = 1.074, Restrained GooF = 1.074 for all data
REM R1 = 0.0474 for 1937 Fo > 4sig(Fo) and 0.0482 for all 2003 data
REM 137 parameters refined using 0 restraints

END

WGHT      0.0776      5.6161

REM Highest difference peak  3.783,  deepest hole -2.013,  1-sigma level  0.182
Q1    1   1.0000  1.0000  0.5000  10.16667  0.05    1.85
Q2    1   0.6667  0.3333  0.6684  10.33333  0.05    1.17
Q3    1   0.6667  0.3333  0.7959  10.33333  0.05    1.01
Q4    1   0.3333  0.6667  0.4337  10.33333  0.05    0.75
Q5    1   0.6768  0.4374  0.8136  11.00000  0.05    0.69
Q6    1   0.3333  0.6667  1.1029  10.33333  0.05    0.60
Q7    1   0.4753  0.5054  0.9167  11.00000  0.05    0.58
Q8    1   0.7185  0.6980  0.6323  11.00000  0.05    0.58
Q9    1   0.3867  0.6156  0.9738  11.00000  0.05    0.55
Q10   1   0.6837  0.7807  0.6195  11.00000  0.05    0.54
Q11   1   0.9743  0.7236  0.8567  11.00000  0.05    0.54
Q12   1   0.7365  0.7246  0.8974  11.00000  0.05    0.50
;
_shelx_res_checksum                82376
_shelx_hkl_file
;
   0   0 -19   78.67    7.49
   0   0 -18    1.32    2.74
   0   0 -17  139.74   13.49
   0   0 -16  370.71   28.20
   0   0 -15  164.80   17.53
   0   0 -14  245.84   22.36
   0   0 -14  242.60   30.28
   0   0 -13  316.33   26.20
   0   0 -12 1441.26  102.55
   0   0 -12 1489.32   86.35
   0   0 -11 1501.50  105.97
   0   0 -11 1612.97   91.05
   0   0 -10  727.83   59.65
   0   0 -10  740.83   46.86
   0   0  -9 1282.45   87.00
   0   0  -8 4338.04  244.16
   0   0  -8 4491.93  241.62
   0   0  -7  543.79   43.14
   0   0  -7  520.79   40.71
   0   0  -6   17.97    6.36
   0   0  -6   27.13    7.17
   0   0  -5   41.59    9.04
   0   0  -5   38.39    7.86
   0   0  -4 4659.45  247.08
   0   0  -4 4693.21  248.81
   0   0  -3  111.21   12.30
   0   0  -2 2277.91  121.61
   0   0  -1   30.83    3.96
   0   0   1   37.38    4.84
   0   0   2 2565.65  137.62
   0   0   3  104.66   12.68
   0   0   4 5123.89  272.22
   0   0   5   55.89   10.50
   0   0   6   38.16    9.57
   0   0   7  617.46   47.27
   0   0   8 5123.11  280.09
   0   0   9 1507.48   83.09
   0   0   9 1397.94   95.60
   0   0  10  843.22   65.38
   0   0  10  854.91   51.61
   0   0  11 1833.08  102.80
   0   0  11 1885.25  121.03
   0   0  12 1544.03  111.51
   0   0  12 1699.43   94.31
   0   0  13  304.94   37.70
   0   0  13  319.93   25.26
   0   0  14  269.35   35.51
   0   0  14  266.49   22.29
   0   0  15  161.97   15.78
   0   0  16  346.55   25.33
   0   0  17  134.22   12.67
   0   0  18    9.88    3.07
   0   1 -19  272.72   17.44
   1  -1 -19  266.09   17.51
   0   1 -18   88.97    9.10
   1  -1 -18   90.17    9.37
   0   1 -17   95.69   10.58
   1  -1 -17   87.66   10.47
  -1   0 -17   92.59   10.97
   1  -1 -16  110.34   12.77
  -1   0 -16  112.43   13.10
  -1   0 -15   52.11    9.74
   1  -1 -15   56.89   10.38
   1  -1 -14   61.70   13.76
  -1   0 -14   69.32   16.57
  -1   0 -14   63.35   10.25
   1  -1 -14   40.09    9.40
   0   1 -14   64.06   10.31
  -1   0 -13  159.83   16.93
   0   1 -13  158.17   16.66
   1  -1 -13  148.34   16.82
   1  -1 -13  166.40   23.61
  -1   0 -13  158.70   25.81
   1  -1 -12  261.47   29.56
  -1   0 -12  206.21   29.33
   0   1 -12  193.55   19.29
   1  -1 -12  215.72   20.27
  -1   0 -12  218.41   20.15
   1  -1 -11  193.56   25.10
   1  -1 -11  166.74   17.33
   0   1 -11  185.32   17.91
  -1   0 -11  181.49   17.58
   1  -1 -11  193.84   27.93
  -1   0 -11  213.78   27.70
   0   1 -10 1865.01  116.29
   0   1 -10 1934.95  106.32
   1  -1 -10 1784.67  105.64
  -1   0 -10 1972.66  106.37
  -1   0 -10 1911.31  120.43
   1  -1 -10 1952.40  123.61
   0   1  -9    4.27    4.19
   1  -1  -9    4.73    5.01
  -1   0  -9    3.40    4.57
   0   1  -9    8.91    6.76
   1  -1  -9    5.62    6.36
   0   1  -8 2376.65  141.79
   1  -1  -8 2461.26  144.83
   0   1  -8 2476.66  146.62
   1  -1  -8 2485.65  147.57
  -1   0  -8 2566.70  146.92
   1  -1  -7   14.36    7.40
   0   1  -7   17.88    6.61
   1  -1  -7   16.70    7.11
   0   1  -7   20.73    8.38
   0   1  -6  304.87   27.63
   1  -1  -6  335.42   29.16
   1  -1  -6  344.28   31.07
   0   1  -6  275.55   28.41
   1  -1  -5  160.11   17.43
   0   1  -5  109.68   15.53
   1  -1  -5  124.36   16.59
   1  -1  -4   86.22   12.35
   0   1  -4   63.45    9.93
   0   1  -3  140.73   12.92
   1  -1  -2 1822.44   94.31
   1  -1  -2 1892.55   96.35
   0   1  -1 2154.82  111.21
   1  -1   0 1365.94   69.62
  -1   0   0 1332.81   69.44
  -1   0   1 2508.47  132.97
   1  -1   1 2589.09  135.07
   1  -1   1 2773.66  134.28
   0   1   2  107.76    9.20
   0   1   3 1330.99   74.83
   0   1   4  457.14   33.25
  -1   0   5  462.87   35.89
   0   1   5  345.96   31.75
   0   1   6   33.22    9.07
  -1   0   6   28.72    9.38
  -1   0   7  652.49   52.18
   0   1   7  674.83   50.84
   1  -1   8  730.39   43.68
   0   1   8  631.02   52.91
  -1   0   8  702.06   55.28
  -1   0   9  518.99   33.60
   1  -1   9  567.62   36.00
   0   1   9  552.45   34.92
   1  -1   9  542.27   47.04
  -1   0   9  552.96   47.57
  -1   0   9  515.76   33.64
   0   1   9  549.18   47.81
  -1   0  10  538.84   35.53
   1  -1  10  532.93   49.60
   1  -1  10  600.47   38.39
   0   1  10  608.39   51.96
   0   1  10  569.12   37.03
  -1   0  10  614.35   51.25
  -1   0  11  413.71   42.01
   1  -1  11  377.07   41.31
   1  -1  11  385.61   29.77
   0   1  11  333.84   39.87
   0   1  11  412.68   29.24
  -1   0  11  460.44   30.16
   1  -1  12  761.13   65.50
   1  -1  12  755.24   49.57
   0   1  12  789.49   48.62
   0   1  12  736.13   65.01
  -1   0  12  775.18   64.63
  -1   0  12  770.56   48.28
   1  -1  13   18.74    7.05
  -1   0  13   15.80    5.36
  -1   0  13   23.90   11.13
   0   1  13   20.39   10.17
   1  -1  13    5.12    6.18
   1  -1  14  262.03   22.28
  -1   0  14  251.40   33.38
  -1   0  14  221.15   19.71
   1  -1  14  225.55   32.62
   1  -1  15   53.50    9.03
  -1   0  15   54.08    8.30
   1  -1  15   52.93    8.78
   1  -1  16  228.13   18.92
   1  -1  16  237.59   18.23
   0   1  17    4.53    3.40
   1  -1  17    4.63    3.69
  -1   0  17    3.60    3.95
   1  -1  18  231.44   16.63
  -1   0  18  262.71   17.91
  -1   0  19   16.67    3.11
  -1   1 -19   17.00    3.47
   1   0 -19   21.52    3.80
   1   0 -18  253.29   18.73
  -1   1 -18  274.06   19.02
   1   0 -17    5.61    4.31
   1   0 -16  235.07   19.57
   0  -1 -16  222.30   20.06
  -1   1 -16  204.13   18.79
   0  -1 -15   45.88    9.27
  -1   1 -15   52.00    8.93
   1   0 -14  218.66   26.35
   0  -1 -14  194.32   27.85
   0  -1 -14  211.07   20.39
  -1   1 -14  203.24   19.55
   1   0 -14  203.12   20.24
   0  -1 -13   27.76    7.30
  -1   1 -13   22.63    6.47
   1   0 -13   19.93    6.97
   0  -1 -13   19.90   10.40
   0  -1 -13   27.86   11.27
   0  -1 -12  646.59   44.50
  -1   1 -12  700.38   58.05
   0  -1 -12  601.16   57.63
  -1   1 -12  677.88   44.16
   1   0 -12  672.47   45.10
   0  -1 -12  673.02   57.87
   1   0 -11  366.18   37.18
  -1   1 -11  365.67   27.43
   0  -1 -11  349.55   27.47
  -1   1 -11  338.76   36.58
   0  -1 -11  385.64   40.14
   1   0 -11  340.99   27.35
   0  -1 -11  305.70   36.19
   1   0 -10  581.73   46.80
   1   0 -10  497.40   35.89
  -1   1 -10  510.82   45.87
   0  -1 -10  555.64   49.21
   0  -1 -10  518.84   36.05
  -1   1 -10  544.06   35.78
   1   0  -9  487.35   42.64
   0  -1  -9  472.12   43.88
  -1   1  -9  506.20   43.18
   1   0  -9  465.02   44.26
   1   0  -8  658.51   49.74
   0  -1  -8  655.61   51.02
  -1   1  -8  609.60   47.77
   1   0  -8  556.90   49.68
  -1   1  -7  723.51   50.82
   1   0  -7  668.31   53.38
   1   0  -7  680.65   50.81
  -1   1  -7  675.29   47.85
   0  -1  -7  690.42   52.32
   1   0  -6   28.66    8.51
  -1   1  -6   36.99    7.88
  -1   1  -6   46.84    9.32
   1   0  -6   28.51    8.99
   1   0  -5  407.42   36.14
  -1   1  -5  441.36   32.81
   1   0  -4  475.36   33.57
  -1   1  -4  399.33   29.51
   0  -1  -3 1216.51   59.14
  -1   1  -3  842.04   56.18
   0  -1  -2  112.27   12.06
  -1   1  -2   92.76    7.82
   0  -1  -1 2558.08  127.31
   1   0  -1 2338.65  127.71
   0  -1   0 1402.47   67.82
   1   0   0 1409.33   68.33
   0  -1   1 2264.16  126.01
   0  -1   2 2116.02  103.79
   1   0   2 1702.45   97.71
   1   0   3  163.29   14.56
  -1   1   3  141.69   16.19
   0  -1   3  167.57   15.13
   1   0   4   79.29   11.31
  -1   1   4   91.86   13.00
   0  -1   4   66.86    8.39
  -1   1   5  156.57   17.80
   1   0   5  101.27   15.03
   1   0   6  287.49   30.29
  -1   1   6  392.47   32.13
   0  -1   6  363.09   32.81
   1   0   7   16.99    7.92
  -1   1   7   22.76    8.40
   0  -1   7   17.77    8.20
  -1   1   8 2760.62  155.12
   0  -1   8 2830.95  157.28
   0  -1   8 2708.50  141.77
   1   0   8 2459.60  155.74
   1   0   8 2736.17  142.71
   0  -1   8 2523.13  140.89
   0  -1   9    5.22    5.91
  -1   1   9    5.01    5.68
   1   0   9   17.08    8.52
   0  -1   9    0.55    3.19
   1   0   9    7.90    4.33
   0  -1   9    7.40    3.75
  -1   1   9   10.41    3.76
   0  -1  10 1984.06  114.72
   1   0  10 2063.69  133.94
   0  -1  10 2226.37  133.47
  -1   1  10 2184.15  132.44
   1   0  10 2159.08  117.05
  -1   1  10 2179.50  115.00
   0  -1  11  213.79   28.94
  -1   1  11  211.87   28.35
   1   0  11  223.15   19.81
   1   0  11  200.02   29.22
  -1   1  11  215.53   17.99
   0  -1  11  231.29   19.69
   0  -1  12  283.55   23.05
  -1   1  12  231.18   31.33
   1   0  12  278.33   36.01
   1   0  12  265.29   22.89
   0  -1  12  283.93   34.57
  -1   1  12  267.32   21.26
   1   0  13  187.47   17.96
   0  -1  13  166.64   26.88
   0  -1  13  171.03   17.25
  -1   1  13  138.61   25.00
   0  -1  14   72.15    9.45
   0  -1  14   67.86   10.51
  -1   1  14   90.13   19.48
   0  -1  14   53.20   15.29
   1   0  15   63.24    9.06
   0  -1  15   50.14    8.78
   1   0  16  101.83   11.16
   0  -1  16  118.85   12.69
   0  -1  16  111.53   12.43
   0  -1  17   87.83    9.96
  -1   1  17   89.34    9.85
   1   0  17   87.01    9.03
  -1   1  18   76.63    7.96
   0  -1  18   74.17    8.14
   0  -1  19  233.18   14.87
   1   1 -19  133.27   10.28
   1  -2 -19  159.68   10.93
   1  -2 -18   79.52    8.33
   1   1 -18   76.51    8.21
   1   1 -17  184.31   15.34
   1  -2 -17  169.85   15.12
  -2   1 -16  453.57   32.36
   1  -2 -16  467.29   33.49
   1   1 -16  502.27   32.62
   1  -2 -16  458.71   32.12
  -2   1 -15  386.05   29.47
   1  -2 -15  398.84   30.47
   1  -2 -15  402.86   29.38
   1  -2 -14  111.26   14.11
  -2   1 -14   96.83   12.77
   1  -2 -14   93.27   17.91
  -2   1 -13  367.33   39.66
   1  -2 -13  354.91   42.51
   1  -2 -13  394.24   40.70
  -2   1 -13  412.65   30.40
   1   1 -12 1386.21   97.07
   1  -2 -12 1568.24  101.25
  -2   1 -12 1334.22   97.24
   1  -2 -12 1473.06  105.05
  -2   1 -12 1500.25   84.79
   1   1 -12 1424.29   85.27
   1   1 -11  594.61   50.95
   1  -2 -11  609.90   52.70
  -2   1 -11  536.46   49.82
   1  -2 -11  562.29   53.86
  -2   1 -11  616.07   40.31
   1   1 -11  601.77   41.05
   1   1 -10  123.45   20.48
   1  -2 -10  171.39   23.72
  -2   1 -10  134.76   20.87
   1  -2 -10  158.72   24.37
  -2   1 -10  132.52   14.33
   1   1 -10  149.79   15.82
  -2   1  -9  459.52   41.12
   1  -2  -9  483.39   44.78
   1  -2  -9  460.02   42.53
   1   1  -9  455.32   42.28
   1   1  -8    9.69    5.87
   1  -2  -8   14.75    8.15
   1  -2  -8   36.57   10.68
  -2   1  -8   20.50    8.47
   1  -2  -7  233.86   27.68
   1  -2  -7  376.30   33.36
   1  -2  -6  684.07   49.35
   1  -2  -5  102.80   13.30
   1  -2  -4 9063.73  467.01
   1  -2  -3  252.75   17.12
   1  -2  -3  220.82   17.71
   1   1  -2 7691.99  386.25
   1  -2  -2 7607.66  384.07
   1  -2  -2 7283.43  384.78
   1   1  -1  227.88   16.48
   1   1   0  176.10   13.81
   1  -2   1   12.69    4.01
   1  -2   2  945.78   58.45
   1  -2   3  248.12   22.65
   1  -2   4 5971.70  316.69
   1   1   5  295.95   27.85
   1  -2   5  367.49   30.79
   1   1   6  267.34   29.04
  -2   1   6  237.96   29.07
  -2   1   7  662.49   52.50
   1  -2   7  747.09   51.97
   1  -2   7  680.35   40.42
   1   1   8  947.72   78.32
  -2   1   8 1232.26   80.24
   1   1   8 1054.74   65.57
   1  -2   8 1213.06   65.70
   1  -2   8 1196.83   78.59
   1  -2   8 1120.16   64.85
   1   1   9  687.42   46.19
   1  -2   9  755.36   58.83
  -2   1   9  793.74   59.81
   1  -2   9  781.76   46.25
   1   1   9  683.82   60.52
  -2   1  10  153.94   22.72
   1   1  10  137.47   14.85
   1  -2  10  133.37   14.98
  -2   1  11  720.81   61.10
  -2   1  11  783.33   46.73
   1  -2  11  738.43   48.60
   1  -2  12   40.29    8.85
  -2   1  12   28.33   11.54
   1  -2  13  227.85   20.91
   1  -2  13  248.54   21.91
  -2   1  13  208.52   29.62
   1  -2  14  520.86   35.75
   1  -2  14  482.87   36.03
  -2   1  14  479.31   48.54
   1  -2  14  512.04   35.08
   1  -2  15  284.59   23.20
   1   1  15  238.56   20.10
   1  -2  15  316.59   24.66
   1  -2  15  305.52   22.54
   1  -2  16   10.46    5.09
   1   1  16    7.13    3.22
   1  -2  16   10.06    4.50
   1  -2  16   13.97    4.15
   1  -2  17  114.32   11.50
   1  -2  18  267.82   18.62
  -2   1  18  282.29   19.07
  -2   1  19  117.03    8.90
   2  -3 -18   49.86    6.03
   1   2 -18   39.70    5.20
  -3   1 -17  146.25   13.05
   2  -3 -17  153.48   13.72
   1   2 -17  155.30   12.99
  -3   1 -16   32.21    6.44
   2  -3 -16   35.80    7.02
   1   2 -16   41.53    6.83
   2  -3 -15  606.75   42.46
  -3   1 -15  653.85   42.35
   2  -3 -15  661.71   42.77
  -3   1 -14  368.35   28.96
   2  -3 -14  387.99   30.10
   2  -3 -14  388.82   30.00
  -3   1 -13  109.86   13.64
   2  -3 -13  113.04   14.41
   2  -3 -13   97.22   13.67
   2  -3 -12 1416.74   95.96
  -3   1 -12 1223.69   92.58
   2  -3 -12 1263.78   98.79
  -3   1 -12 1397.36   80.84
   1   2 -12 1359.39   94.21
   2  -3 -12 1469.05   82.88
   2  -3 -12 1323.98   80.82
   2  -3 -11   20.79   10.05
  -3   1 -11   29.01    7.41
   2  -3 -11   18.09    6.07
   1   2 -11   25.55   10.35
   2  -3 -11   30.94    8.20
  -3   1 -11   29.87   11.02
   1   2 -10 1246.61   92.63
  -3   1 -10 1508.42   96.21
   2  -3 -10 1401.66   81.50
   2  -3 -10 1399.41   96.11
   2  -3  -9   39.81    7.39
   2  -3  -9   29.08   10.27
   1   2  -9   22.82    9.82
   2  -3  -8  226.09   27.92
   2  -3  -8  287.45   31.93
   2  -3  -7   95.93   15.73
   2  -3  -7  109.28   18.57
   2  -3  -6   53.62   10.36
   2  -3  -6   61.92   13.28
   2  -3  -5  460.25   33.40
   2  -3  -5  407.51   37.55
   2  -3  -4  454.95   31.32
   2  -3  -4  409.93   36.37
   2  -3  -3  858.22   58.44
   1   2  -2 2824.27  148.69
   2  -3  -2 2715.76  151.60
   1   2  -1 2327.37  131.02
   2  -3  -1 2561.01  130.53
   1   2   0  111.37   11.30
   2  -3   1   41.93    4.13
   2  -3   2  884.74   51.03
   2  -3   3  614.18   41.30
   2  -3   4 1082.02   69.38
   2  -3   5  498.83   40.16
   2  -3   6   68.06    9.01
   2  -3   6   70.76   13.81
   2  -3   7  609.27   47.10
  -3   1   7  479.65   46.45
   2  -3   8   29.53    6.37
  -3   1   8   21.14    5.31
   2  -3   8   38.14   11.07
  -3   1   8   13.10    8.77
   2  -3   9  131.13   15.42
  -3   1   9  146.84   24.34
   2  -3   9  175.31   24.62
   2  -3   9  187.56   16.91
  -3   1  10  344.82   37.51
   2  -3  10  331.74   26.16
   2  -3  10  310.97   36.14
   2  -3  10  309.82   26.42
   2  -3  11  108.26   13.99
  -3   1  11  132.89   22.72
   2  -3  11  110.07   21.49
   2  -3  11  144.91   16.25
   2  -3  12  515.38   51.63
   2  -3  12  512.15   37.87
  -3   1  12  547.82   51.20
   2  -3  12  541.66   38.36
  -3   1  13  292.14   35.46
   2  -3  13  257.03   36.02
   2  -3  13  272.92   25.22
   2  -3  13  347.56   26.42
   2  -3  14  108.46   22.48
  -3   1  14  131.68   22.58
   2  -3  14  124.58   15.17
   2  -3  14  120.59   14.01
   2  -3  14  126.84   14.92
   2  -3  15  122.46   13.56
   2  -3  15  119.14   14.47
   2  -3  15  121.54   13.77
   2  -3  16  229.57   18.74
   2  -3  16  247.75   19.57
   2  -3  17   13.39    3.74
   2  -3  17   18.69    4.50
  -3   1  18  372.07   23.83
   0   2 -19   21.22    3.33
  -2   0 -19   25.98    3.53
  -2   0 -18  501.53   30.02
   0   2 -18  481.74   29.82
   0   2 -17    3.46    3.47
   2  -2 -17    9.31    4.93
  -2   0 -17    6.39    4.07
   2  -2 -16  607.61   40.09
  -2   0 -16  635.74   41.14
   2  -2 -15   46.03    9.12
   2  -2 -15   48.10    9.26
  -2   0 -15   54.46    9.76
  -2   0 -14  213.08   30.40
  -2   0 -14  174.64   27.84
  -2   0 -14  230.67   21.03
  -2   0 -13  218.63   31.67
  -2   0 -13  206.28   30.15
  -2   0 -13  231.45   21.27
   2  -2 -12  189.88   25.13
  -2   0 -12  184.75   26.99
   0   2 -12  188.34   18.44
  -2   0 -12  173.04   18.22
   0   2 -11  229.92   27.85
   2  -2 -11  291.45   31.68
  -2   0 -11  238.21   31.68
   0   2 -11  281.51   23.30
  -2   0 -11  274.75   23.40
   2  -2 -10  614.82   55.21
  -2   0 -10  584.05   51.89
   0   2 -10  592.67   48.53
   2  -2 -10  573.92   40.45
   0   2 -10  599.36   40.58
   2  -2 -10  683.46   51.74
   0   2  -9  421.98   36.87
   2  -2  -9  380.89   36.34
   2  -2  -9  341.19   39.06
   0   2  -8 1663.46   95.20
   2  -2  -8 1538.57  100.04
   2  -2  -7 1210.30   86.58
  -2   0  -7 1521.17   79.32
   2  -2  -6  349.50   27.38
   2  -2  -6  281.92   18.09
   2  -2  -5  147.76   18.37
   2  -2  -5  161.86   15.69
   2  -2  -4 1369.15   75.51
   2  -2  -4 1280.55   67.47
   2  -2  -3 1536.74   87.21
   2  -2  -3 1471.02   79.64
   2  -2  -3 1429.68   86.21
   2  -2  -2  125.86   14.47
   2  -2  -2  186.02   15.02
   2  -2  -1  375.29   28.38
   0   2  -1  512.35   27.19
  -2   0   0  260.28   16.56
   0   2   0  252.10   17.60
   2  -2   0  301.69   16.64
   2  -2   0  294.55   17.24
   2  -2   1  317.95   18.70
   2  -2   2  434.63   29.16
  -2   0   2  417.65   24.80
   2  -2   2  430.05   26.93
   2  -2   3  875.26   54.01
   2  -2   3  887.07   53.19
   2  -2   4 2524.64  140.84
   0   2   5   11.30    5.11
   2  -2   5   10.49    6.12
   2  -2   6  668.60   50.89
   0   2   6  662.30   49.97
   2  -2   7   43.98    7.30
   2  -2   7   38.19   11.17
   0   2   7   47.45   12.11
  -2   0   7   36.23   11.86
  -2   0   8   28.50    5.96
   2  -2   8   36.43    7.08
  -2   0   8   33.53    6.16
   0   2   8   38.12   11.56
  -2   0   8   34.27   12.44
   2  -2   8   47.38   12.21
  -2   0   9    4.25    3.65
   2  -2   9    7.32    4.12
  -2   0   9    4.23    3.11
   0   2   9   -2.08    5.00
  -2   0   9    6.36    8.05
   2  -2   9   11.61    6.97
  -2   0  10  379.13   25.49
   2  -2  10  363.95   27.95
   2  -2  10  400.28   40.65
  -2   0  10  351.75   39.60
  -2   0  10  337.18   25.48
   0   2  10  367.98   40.03
   2  -2  11   43.24    8.41
  -2   0  11   42.37   12.95
   2  -2  11   20.97   11.32
  -2   0  11   38.13    6.88
   2  -2  11   29.70    7.49
   2  -2  12  751.47   67.09
  -2   0  12  765.17   66.11
   2  -2  12  793.05   51.89
   2  -2  12  808.08   50.82
   2  -2  13   10.48    7.70
  -2   0  13    2.38    7.56
   2  -2  13    2.80    5.26
  -2   0  13    6.35    4.16
   2  -2  13    8.63    5.58
   2  -2  14  456.31   56.63
   2  -2  14  579.94   38.45
  -2   0  14  540.74   36.72
   2  -2  14  581.21   40.42
  -2   0  14  606.09   54.68
   2  -2  15  262.14   21.12
  -2   0  15  243.18   19.74
   2  -2  16   76.33    9.60
   2  -2  16   70.81    9.34
   2  -2  17  159.61   12.91
   2  -2  17  137.62   12.25
  -2   0  17  144.87   13.54
  -2   0  18    8.43    3.50
  -2   0  19  165.62   11.68
  -1  -1 -19  116.98    8.97
  -1   2 -19  108.54    8.97
   2  -1 -19  127.98    9.43
   2  -1 -18  288.08   20.12
  -1  -1 -18  296.51   19.71
  -1   2 -18  285.43   19.81
  -1  -1 -17  115.54   12.33
   2  -1 -17  102.81   11.29
  -1  -1 -17  108.94   11.10
  -1  -1 -16    5.33    4.10
   2  -1 -16   10.20    4.70
   2  -1 -15  277.10   23.21
  -1  -1 -15  271.92   23.83
  -1  -1 -14  458.53   48.45
  -1  -1 -14  457.10   47.18
   2  -1 -14  507.58   35.23
  -1  -1 -14  491.13   35.45
   2  -1 -14  444.34   34.72
  -1   2 -14  463.47   33.85
  -1  -1 -13  213.54   30.27
  -1  -1 -13  211.34   31.02
  -1  -1 -13  207.41   20.30
   2  -1 -13  209.02   20.52
  -1   2 -13  193.55   18.80
  -1  -1 -12   46.53   13.50
   2  -1 -12   32.95   10.24
  -1  -1 -12   48.60   14.69
  -1  -1 -12   34.30    8.03
  -1   2 -12   31.67    7.08
   2  -1 -12   37.66    8.37
   2  -1 -11  616.13   55.15
  -1  -1 -11  840.90   63.39
   2  -1 -11  741.21   54.29
  -1   2 -11  635.75   43.38
   2  -1 -11  667.11   45.28
  -1  -1 -11  660.22   44.68
  -1  -1 -11  673.21   58.96
  -1  -1 -10  136.66   22.20
   2  -1 -10  119.63   20.25
   2  -1 -10  118.60   14.07
  -1   2 -10  110.69   12.56
  -1   2  -9  670.09   50.44
   2  -1  -9  716.02   55.59
  -1  -1  -9  720.65   58.06
  -1   2  -8 1043.02   72.22
  -1   2  -8 1058.35   68.68
   2  -1  -8 1109.78   74.85
  -1   2  -7  638.81   48.43
   2  -1  -7  580.19   52.13
   2  -1  -7  704.53   51.14
  -1   2  -7  663.15   45.82
  -1  -1  -6  289.94   21.36
  -1   2  -6  275.51   26.24
  -1   2  -6  318.71   25.23
  -1  -1  -5  317.19   24.21
  -1   2  -5  255.87   23.42
   2  -1  -5  231.25   25.95
  -1   2  -5  286.34   23.33
  -1   2  -4 5053.57  263.59
  -1  -1  -3  255.47   20.59
   2  -1  -3  251.16   15.91
  -1  -1  -2  959.04   54.90
   2  -1  -1    8.71    2.84
  -1  -1  -1   19.00    3.46
   2  -1   0  185.70   13.45
  -1  -1   0  172.15   13.28
  -1  -1   1  223.92   15.76
   2  -1   1  240.69   16.63
   2  -1   2 7400.78  382.93
  -1   2   2 7502.39  380.17
   2  -1   3  227.86   19.30
  -1   2   3  259.71   18.63
  -1   2   4 8620.67  446.24
  -1   2   5   78.05   12.64
  -1  -1   5  121.26   14.28
  -1   2   6  821.63   53.89
  -1  -1   6  691.22   46.04
  -1   2   7  409.82   34.79
   2  -1   7  376.77   26.83
  -1  -1   7  309.34   36.68
   2  -1   8   22.98    6.01
  -1  -1   8   19.98    5.54
  -1   2   8   18.76    8.46
  -1  -1   8   41.71   12.20
  -1  -1   8   20.17    5.44
  -1  -1   9  413.67   30.93
   2  -1   9  497.26   33.74
  -1   2   9  504.42   43.80
  -1  -1   9  508.42   32.50
  -1  -1   9  514.03   47.27
  -1  -1  10  136.27   13.97
   2  -1  10  152.25   16.00
  -1  -1  10  151.25   24.00
  -1   2  10  129.84   21.99
  -1  -1  10  133.07   13.84
  -1  -1  11  663.92   41.08
   2  -1  11  564.81   56.07
  -1   2  11  631.78   55.59
  -1  -1  11  648.48   57.14
   2  -1  11  651.93   43.31
  -1  -1  11  598.03   40.05
  -1   2  12 1591.82  111.90
  -1  -1  12 1702.96  114.59
   2  -1  12 1662.09   96.17
  -1   2  13  407.64   44.66
  -1  -1  13  466.64   32.60
   2  -1  13  432.65   31.17
  -1  -1  13  435.81   46.46
   2  -1  13  426.77   33.29
   2  -1  14  128.09   13.40
  -1  -1  14  120.98   22.78
  -1  -1  14  110.83   13.52
  -1  -1  15  439.27   30.80
   2  -1  15  415.62   29.43
   2  -1  16  462.01   31.68
  -1  -1  16  519.09   33.41
  -1  -1  16  530.75   34.24
   2  -1  17  192.07   14.57
  -1  -1  17  171.19   15.45
  -1  -1  18   79.22    8.54
  -1  -1  19  150.16   10.94
   0  -2 -19  151.99   10.56
  -2   2 -19  157.24   11.03
   2   0 -19  147.61   10.64
   2   0 -18    6.24    3.19
   0  -2 -18    8.01    3.11
   0  -2 -17  140.09   13.82
   0  -2 -17  131.33   12.62
   2   0 -17  147.86   13.31
   2   0 -16   66.56    9.52
   0  -2 -16   60.20    8.83
   0  -2 -16   52.77    9.18
   2   0 -15  255.36   21.21
  -2   2 -15  218.02   19.44
   0  -2 -15  224.44   21.04
   0  -2 -14  528.28   52.77
   2   0 -14  554.68   37.53
   0  -2 -14  474.59   48.48
   0  -2 -14  511.12   37.45
  -2   2 -14  503.97   35.71
   0  -2 -13   13.83    7.83
   0  -2 -13    2.61    7.68
  -2   2 -13    9.36    4.69
   0  -2 -13    4.53    4.36
   0  -2 -12  736.06   63.35
  -2   2 -12  640.62   44.08
   2   0 -12  677.21   46.70
   2   0 -12  736.24   60.17
   0  -2 -12  776.75   62.72
   2   0 -11   28.42   10.74
   0  -2 -11   33.67   12.45
   0  -2 -11   35.33   12.10
  -2   2 -11   19.44    9.14
   2   0 -11   33.15    7.67
  -2   2 -11   41.13    7.17
   2   0 -10  346.46   36.59
   0  -2 -10  414.98   40.63
  -2   2 -10  298.11   32.32
   0  -2 -10  345.11   38.13
   2   0 -10  325.76   26.89
  -2   2 -10  337.10   25.20
   0  -2  -9   -2.00    5.38
   0  -2  -9    5.98    6.32
  -2   2  -9    2.96    3.97
   2   0  -9    1.84    6.25
   0  -2  -8   31.71   10.63
  -2   2  -8   41.04    9.94
   2   0  -8   28.15   10.04
  -2   2  -7   54.26   10.55
   0  -2  -7   25.52   10.40
  -2   2  -6  886.82   53.79
   0  -2  -6  668.10   54.18
   0  -2  -5   18.64    5.84
  -2   2  -5    9.15    4.04
   0  -2  -4 2705.54  151.38
   0  -2  -3 1014.02   66.78
   2   0  -2  437.09   29.83
   0  -2  -2  439.88   29.08
   0  -2  -2  429.06   28.83
   2   0  -1  340.03   23.65
   0  -2   0  261.90   18.34
   2   0   0  264.90   18.95
   0  -2   1  549.34   45.11
   2   0   1  474.81   27.26
   0  -2   2  172.14   22.13
   0  -2   2  161.53   13.37
  -2   2   3 1331.73   84.31
   0  -2   3 1785.50   94.68
  -2   2   4 1380.76   81.57
   0  -2   4 1305.43   82.70
  -2   2   5  184.13   19.55
   0  -2   5  151.07   20.11
   0  -2   5  148.34   17.45
   0  -2   6  343.02   37.16
  -2   2   6  489.63   36.50
   0  -2   7 1458.28   93.49
   0  -2   7 1757.73   93.68
   0  -2   8 1757.34   95.96
   2   0   8 1641.92   96.72
  -2   2   8 1830.42  107.23
   0  -2   8 1681.00   94.69
   0  -2   9  421.32   30.22
   2   0   9  460.44   32.41
  -2   2   9  415.37   38.92
   0  -2   9  418.32   29.74
  -2   2  10  712.13   55.40
   2   0  10  662.56   44.32
   0  -2  10  645.62   42.27
   0  -2  10  641.67   42.01
  -2   2  11  266.31   32.06
   0  -2  11  280.54   22.41
   0  -2  11  254.40   21.79
  -2   2  12  211.15   28.70
   0  -2  12  207.72   20.01
   0  -2  12  218.79   19.27
   0  -2  13  251.62   21.27
  -2   2  13  214.94   30.69
   0  -2  13  259.48   23.00
   2   0  13  280.73   21.14
   0  -2  14  225.22   19.06
   0  -2  14  232.21   21.11
  -2   2  14  195.51   28.48
   2   0  14  230.40   18.42
   0  -2  14  220.47   20.47
   0  -2  15   41.85    7.29
   0  -2  15   64.93   10.04
   2   0  15   58.21    8.15
   0  -2  16  680.16   41.94
   0  -2  16  603.75   40.57
   2   0  17    4.56    2.98
   0  -2  17   14.35    5.08
   0  -2  18  509.29   30.24
  -2   2  18  472.60   29.21
   1  -3 -18   66.11    7.07
   2   1 -18   55.91    6.47
   1  -3 -18   64.55    6.76
   2   1 -17    5.51    3.59
   1  -3 -17    9.84    4.15
   2   1 -16  411.01   27.47
   1  -3 -16  393.00   27.55
  -3   2 -16  362.44   26.27
   1  -3 -15   41.69    8.25
   2   1 -15   52.06    8.62
  -3   2 -15   38.83    7.31
   1  -3 -14 1160.97   83.60
   1  -3 -14 1135.41   68.99
  -3   2 -14 1031.46   66.19
   2   1 -14 1204.22   67.97
   1  -3 -14 1144.56   68.12
   1  -3 -13  160.42   25.01
   2   1 -13  132.36   22.45
  -3   2 -13  140.83   14.79
   1  -3 -13  122.03   23.70
   1  -3 -13  133.70   15.63
   1  -3 -13  120.16   14.91
   2   1 -12  554.51   50.60
  -3   2 -12  503.29   35.95
   1  -3 -12  535.17   53.37
   1  -3 -12  544.32   51.85
   1  -3 -12  532.54   37.88
  -3   2 -11 1095.44   76.47
   1  -3 -11 1067.33   84.17
   1  -3 -11 1117.60   83.37
   1  -3 -11 1043.15   66.06
  -3   2 -11 1093.74   64.67
   2   1 -11 1108.44   81.59
   2   1 -10   85.25   17.47
   1  -3 -10   82.40   11.26
  -3   2 -10   76.88   10.34
   1  -3 -10   99.12   19.38
  -3   2 -10   94.75   16.09
  -3   2  -9  142.93   19.73
   1  -3  -9  157.55   18.43
   1  -3  -9  114.12   21.33
   1  -3  -9  155.83   15.35
   2   1  -9  148.53   23.23
  -3   2  -8   98.18   14.97
   1  -3  -8   66.03   12.12
   1  -3  -8   79.82   16.36
   1  -3  -7  701.25   52.91
   1  -3  -7  865.39   57.58
   1  -3  -6 1510.42   90.65
   1  -3  -6 1363.17   85.40
   1  -3  -5  846.40   55.52
   1  -3  -5  912.91   58.44
   1  -3  -4  448.42   32.47
   1  -3  -4  409.29   30.59
   1  -3  -3 1338.72   77.63
   1  -3  -3 1350.30   77.01
   2   1  -2 4995.61  262.51
   2   1  -1  703.61   44.50
   2   1   0  688.81   39.15
   1  -3   0  361.11   46.03
   1  -3   1  136.91   23.24
   1  -3   2  802.07   49.48
   1  -3   3  506.78   37.12
   1  -3   3  439.38   32.82
   1  -3   4  280.61   29.12
   1  -3   4  335.46   27.40
   1  -3   5  779.50   56.60
   1  -3   5  757.22   54.05
   1  -3   6 6995.93  331.79
   1  -3   6 6450.62  316.08
   1  -3   7   63.91    8.87
   1  -3   7   62.84    9.15
  -3   2   7   65.38   14.10
   1  -3   7   67.42   14.26
   1  -3   8 1489.23   83.97
   1  -3   8 1479.99   97.30
  -3   2   8 1460.87   96.36
   1  -3   8 1474.88   84.15
   1  -3   9    0.71    3.80
   1  -3   9   -0.71    3.83
   1  -3   9    3.73    6.32
  -3   2   9    3.48    5.12
   1  -3  10  159.71   16.54
   1  -3  10  164.84   24.90
  -3   2  11  151.12   23.54
   1  -3  11  155.86   24.92
   1  -3  11  171.06   30.59
   1  -3  11  153.76   17.19
   1  -3  11  175.04   17.48
   1  -3  12   39.34    9.13
   1  -3  12   47.92    9.79
  -3   2  12   43.14   13.24
   1  -3  12   44.35   13.91
   1  -3  12   56.70    9.81
   1  -3  12   33.15   15.05
   1  -3  13    7.09    5.85
   1  -3  13   28.68    7.68
  -3   2  13   14.87    8.84
   1  -3  13    9.79    8.83
   1  -3  13    6.43    4.35
   1  -3  13   19.95   12.62
   1  -3  14  844.99   71.73
   1  -3  14  897.58   56.32
  -3   2  14  800.01   67.32
   1  -3  14  879.31   54.52
   1  -3  14  828.92   78.49
   1  -3  14  931.89   56.20
   1  -3  15  145.96   15.64
   1  -3  15  128.61   13.55
   1  -3  15  154.52   15.64
   1  -3  16  415.96   27.94
   1  -3  16  418.16   29.64
   1  -3  16  441.39   30.82
   1  -3  17  440.33   28.96
  -3   2  18    5.33    2.72
   2  -4 -18  119.80    9.30
   2  -4 -17   60.44    7.16
   2   2 -17   53.92    6.37
   2  -4 -17   61.41    7.43
  -4   2 -16   26.85    5.03
   2  -4 -16   23.03    5.41
   2   2 -16   25.27    5.15
   2  -4 -15  453.10   32.56
   2   2 -15  473.70   31.35
   2  -4 -15  504.83   33.71
  -4   2 -15  448.14   31.12
   2  -4 -14  104.27   12.80
   2   2 -14   86.92   10.97
  -4   2 -14   87.20   11.09
   2  -4 -14   81.84   11.88
   2  -4 -13  651.26   43.85
   2   2 -13  587.08   54.52
   2  -4 -13  668.72   44.60
   2   2 -13  634.76   41.74
  -4   2 -13  633.02   42.08
   2  -4 -12   18.60    9.82
   2   2 -12   42.74   14.13
   2  -4 -12   31.82   12.03
   2  -4 -12   40.13    8.83
   2  -4 -12   36.27    8.13
  -4   2 -12   37.83    8.05
   2  -4 -11  552.11   52.12
   2  -4 -11  472.03   50.69
   2  -4 -11  515.38   37.40
   2   2 -11  488.11   50.04
   2  -4 -11  575.04   39.76
  -4   2 -11  509.76   36.10
   2  -4 -10   31.50   12.09
   2   2 -10   33.35   12.56
  -4   2 -10   25.22    9.80
   2  -4 -10   29.26   11.44
   2  -4 -10   39.27    9.33
   2  -4 -10   30.65    7.54
   2  -4  -9  104.89   21.08
  -4   2  -9  126.82   19.04
   2  -4  -9   90.51   13.64
  -4   2  -9  130.30   14.21
   2  -4  -9  121.50   14.09
   2  -4  -8  351.91   37.30
   2  -4  -8  295.42   34.38
   2  -4  -7  551.12   47.95
   2  -4  -7  480.54   43.95
   2  -4  -6 1072.28   76.21
   2  -4  -5  972.28   69.37
   2  -4  -4 7011.19  374.77
   2  -4  -3  162.88   20.29
   2   2  -2  139.32   15.72
   2   2  -1    0.86    2.31
   2  -4  -1    0.81    2.37
   2   2   0  527.10   38.82
   2  -4   0  586.91   33.94
   2  -4   1  132.84    9.56
   2   2   1  121.74   14.46
   2  -4   2 1095.77   64.05
   2  -4   3  172.96   18.75
   2  -4   4 2622.77  147.79
   2  -4   4 2563.39  148.64
   2  -4   5  557.05   36.68
   2  -4   5  538.33   36.41
   2  -4   5  571.79   44.02
   2  -4   5  544.48   45.28
   2  -4   6  473.15   41.67
   2  -4   6  510.92   34.53
   2  -4   6  546.11   47.23
   2  -4   7  729.32   44.52
  -4   2   7  561.32   53.87
   2  -4   7  717.21   55.07
   2  -4   7  717.44   61.30
   2  -4   8  372.53   36.14
  -4   2   8  297.54   35.17
   2  -4   8  278.59   39.39
  -4   2   9  431.17   41.65
   2  -4   9  503.65   43.88
  -4   2  10  203.04   27.31
   2  -4  10  166.20   25.87
   2  -4  10  169.75   32.57
   2  -4  10  177.06   19.35
   2  -4  11  419.21   32.78
   2  -4  11  419.74   31.82
  -4   2  11  378.56   40.13
   2  -4  11  338.70   40.43
   2  -4  11  439.31   54.52
   2  -4  11  409.00   32.27
   2  -4  12  415.96   31.57
   2  -4  12  378.33   30.14
   2  -4  12  373.70   29.97
   2  -4  12  304.04   38.56
  -4   2  12  354.70   38.46
   2  -4  12  340.28   48.84
   2  -4  13  115.70   14.45
   2  -4  13  138.92   24.14
   2  -4  13  134.24   16.01
  -4   2  13  143.04   22.36
   2  -4  13  124.40   27.17
   2  -4  13  148.30   16.80
   2  -4  14  125.11   15.06
   2  -4  14  116.30   14.73
   2  -4  14  123.79   14.24
   2  -4  15  226.05   19.54
   2  -4  15  188.11   19.06
   2  -4  15  225.14   18.85
   2  -4  16  215.83   17.93
   2  -4  16  216.45   18.56
   2  -4  16  204.34   16.72
   2  -4  17  245.22   16.99
  -4   2  18   36.28    5.02
   3  -5 -17   98.80    8.81
  -5   2 -16  122.35   10.42
   3  -5 -16  130.05   11.92
  -5   2 -15   32.07    5.72
   3  -5 -15   28.43    6.66
  -5   2 -14  718.55   45.81
   3  -5 -14  775.44   48.53
   3  -5 -13   11.27    6.09
  -5   2 -13    7.14    4.40
   3  -5 -13   14.89    5.81
   3  -5 -12  213.53   20.33
   3  -5 -12  227.80   22.21
   2   3 -12  211.57   29.03
  -5   2 -12  201.51   19.02
   3  -5 -11  454.42   33.76
   3  -5 -11  409.26   47.22
   2   3 -11  469.85   47.52
   3  -5 -11  448.50   36.04
   3  -5 -10   55.32   15.98
   3  -5 -10   33.47    9.49
   2   3 -10   54.45   16.04
  -5   2 -10   61.13   10.26
   3  -5 -10   46.31    8.55
   3  -5  -9   12.99    6.14
  -5   2  -9   12.43    5.55
   3  -5  -9   20.08    6.15
   3  -5  -9   15.29    9.20
   3  -5  -8  119.45   14.79
  -5   2  -8   88.04   12.81
   3  -5  -8  138.03   23.71
   3  -5  -8  119.75   13.91
   3  -5  -7  283.34   28.62
   3  -5  -7  367.31   39.23
   3  -5  -6  842.95   67.45
   3  -5  -5  417.07   41.87
   3  -5  -4  735.60   57.67
   3  -5  -3  585.14   44.52
   3  -5  -2  365.46   27.67
   2   3  -2  343.96   29.91
   2   3  -1  148.56   17.43
   3  -5  -1  173.33   20.25
   2   3   0  394.85   29.68
   3  -5   0  248.89   28.07
   2   3   1  244.20   23.95
   2   3   2  428.61   35.03
   3  -5   3 2084.66  112.74
   3  -5   4   36.12    6.98
  -5   2   4   25.13    4.68
   3  -5   4   32.69    7.49
  -5   2   5  298.17   19.61
   3  -5   5  225.79   25.52
   3  -5   5  362.36   23.87
   3  -5   5  191.30   20.72
  -5   2   6   23.13    4.99
   3  -5   6   14.42    7.28
   3  -5   6   37.62    7.38
   3  -5   6   24.56    6.70
   3  -5   7  505.44   53.49
   3  -5   7  430.12   44.25
   3  -5   7  524.58   35.88
   3  -5   7  608.17   38.84
  -5   2   7  505.41   33.18
   3  -5   8  524.72   59.98
   3  -5   8  585.59   41.91
   3  -5   8  587.83   39.81
   3  -5   8  653.10   42.24
   3  -5   8  596.53   52.96
  -5   2   8  466.35   51.61
   3  -5   9  714.50   44.30
   3  -5   9  622.51   55.38
  -5   2   9  569.46   55.61
   3  -5   9  494.51   42.84
   3  -5   9  681.59   45.41
   3  -5   9  436.34   60.24
  -5   2  10  133.90   22.90
   3  -5  10  144.64   16.78
   3  -5  10  136.93   17.91
   3  -5  10  127.05   23.15
   3  -5  10  149.56   17.86
   3  -5  10  144.77   31.93
  -5   2  11 1196.02   88.64
   3  -5  11 1237.47   76.67
   3  -5  11 1230.00   92.82
   3  -5  11 1307.04   79.34
   3  -5  11 1304.41   78.14
   3  -5  11 1125.87  107.52
  -5   2  12  185.38   26.19
   3  -5  12  211.93   30.64
   3  -5  12  247.06   23.76
   3  -5  12  219.13   39.37
   3  -5  12  214.81   21.21
   3  -5  13   52.21   10.37
   3  -5  13   40.72    8.93
   3  -5  14  378.13   29.99
   3  -5  14  404.69   30.35
   3  -5  14  385.36   29.19
   3  -5  15  159.07   14.90
   3  -5  15  142.18   15.34
   3  -5  16  417.53   27.37
   3  -5  17    0.31    1.97
  -5   2  18  376.47   22.20
   3  -5  18  372.42   22.08
  -4   1 -18  179.45   12.16
   3  -4 -18  170.77   12.32
   3  -4 -17    1.23    2.41
  -4   1 -17    4.52    2.31
   3  -4 -17    3.04    2.76
  -4   1 -16  110.75   11.43
   3  -4 -16  115.29   12.09
   1   3 -16  104.73   10.20
  -4   1 -15  156.44   15.42
   3  -4 -15  179.75   16.98
   1   3 -15  160.08   14.42
  -4   1 -14  330.33   27.24
   3  -4 -14  369.94   28.49
   3  -4 -14  392.08   29.58
   3  -4 -13   47.32   10.32
  -4   1 -13   61.13   17.67
  -4   1 -13   51.84    9.40
   3  -4 -13   58.77   10.07
  -4   1 -12  998.08   61.86
   3  -4 -12 1076.06   65.09
  -4   1 -12  938.33   73.83
   3  -4 -12  965.13   61.95
   1   3 -12  911.91   72.02
   3  -4 -11   64.72   12.03
   1   3 -11   26.36   10.81
   3  -4 -11   42.24    9.33
  -4   1 -11   38.22   12.91
  -4   1 -10  529.80   38.72
   3  -4 -10  499.73   39.40
   3  -4 -10  525.49   52.20
   1   3 -10  474.84   47.25
   3  -4 -10  543.26   37.73
  -4   1  -9  181.99   20.76
   3  -4  -9  220.76   22.73
   3  -4  -9  271.84   33.80
   3  -4  -9  284.23   22.78
   3  -4  -8    7.39    5.09
   3  -4  -8    9.16    7.28
   3  -4  -7  792.07   64.35
   3  -4  -6  836.02   66.03
   3  -4  -5  944.37   71.26
   3  -4  -4   36.81    9.69
   3  -4  -3  819.24   54.83
   3  -4  -2  414.53   29.41
   1   3  -2  414.78   30.06
   1   3  -1  115.59   13.01
  -4   1  -1  138.97   11.58
   1   3   0  698.30   42.64
  -4   1   0  627.22   35.44
   1   3   1 1773.29  100.33
  -4   1   2 1255.12   69.17
   3  -4   3   20.90    4.97
   3  -4   4 1706.72  101.12
   3  -4   4 1825.44  107.36
   3  -4   5   66.38    8.52
   3  -4   5   39.56    7.69
   3  -4   5   63.55   12.10
   3  -4   5   73.76   14.72
   3  -4   6   26.75    9.93
   3  -4   6   61.36    9.45
   3  -4   6   64.60    8.79
  -4   1   6   51.30    6.96
   3  -4   6   68.16   15.63
   3  -4   7   13.37    7.25
   3  -4   7    4.96    6.66
   3  -4   7    3.20    4.30
   3  -4   7    6.65    4.23
  -4   1   7    8.45    3.49
   3  -4   8  716.57   69.85
   3  -4   8  692.03   49.02
   3  -4   8  804.05   63.51
   3  -4   8  924.05   51.73
  -4   1   8  674.35   63.25
  -4   1   8  758.82   47.36
   3  -4   9   84.13   19.04
  -4   1   9   45.53   15.39
   3  -4   9   69.92   11.67
  -4   1   9   64.76   10.12
   3  -4   9   44.02   16.17
   3  -4  10 2130.65  120.66
   3  -4  10 1878.65  149.95
  -4   1  10 2068.22  138.89
   3  -4  10 2187.63  137.98
   3  -4  11   59.68   16.12
  -4   1  11   62.89   16.74
   3  -4  11   74.37   12.14
   3  -4  11   72.55   22.40
   3  -4  11   59.80   11.10
   3  -4  12  548.13   39.34
   3  -4  12  472.92   51.04
   3  -4  12  518.63   38.67
  -4   1  12  532.75   50.86
   3  -4  12  518.86   63.40
   3  -4  13  225.84   38.20
   3  -4  13  224.89   21.38
   3  -4  13  210.36   21.05
  -4   1  13  214.95   29.31
   3  -4  13  186.14   19.56
   3  -4  14   20.77    6.20
   3  -4  14   19.65    6.86
   3  -4  14   13.01    6.75
   3  -4  15  191.28   17.16
   3  -4  15  172.85   17.00
   3  -4  16   19.98    5.03
   3  -4  17   77.74    8.00
  -4   1  18  363.40   22.66
   0   3 -18   20.53    3.49
  -3   0 -18   25.68    4.01
   3  -3 -18   19.12    3.69
  -3   0 -17  286.95   20.92
   0   3 -17  286.86   19.73
  -3   0 -16   17.81    5.38
  -3   0 -15  755.43   48.68
  -3   0 -14   43.00    9.07
   3  -3 -13  383.74   30.88
  -3   0 -13  395.94   31.03
  -3   0 -13  392.50   43.58
   0   3 -12   35.07   10.40
  -3   0 -12   28.55   11.58
   3  -3 -12   36.08    8.67
  -3   0 -12   47.18    9.46
  -3   0 -12   50.11   16.25
  -3   0 -11  292.18   36.80
   0   3 -11  311.91   32.76
  -3   0 -11  385.96   42.58
   3  -3 -11  316.56   26.86
   0   3 -10   74.35   14.87
  -3   0 -10   70.76   11.65
   3  -3 -10   71.11   14.75
   3  -3 -10   69.77   11.06
   0   3  -9  360.02   33.26
   3  -3  -9  370.93   26.33
   3  -3  -8  679.84   56.49
   3  -3  -8  521.66   45.37
   3  -3  -8  764.09   53.96
   0   3  -8  488.62   45.41
   3  -3  -7  613.99   57.53
   3  -3  -7  763.24   52.25
   3  -3  -7  804.32   57.39
   3  -3  -6 1639.99   91.76
   3  -3  -6 1515.43   83.05
   3  -3  -5  112.50   16.24
   3  -3  -5   83.83   15.80
   3  -3  -4 2463.19  134.93
   3  -3  -4 2209.74  133.75
   3  -3  -3    7.18    4.62
  -3   0  -2  237.90   18.78
   3  -3  -2  222.99   19.71
  -3   0  -1   57.96    7.05
   3  -3  -1   64.03    7.21
   0   3  -1   67.91    7.39
  -3   0   0 9999.00  500.74
   0   3   0 9615.29  502.69
   3  -3   1    2.50    1.53
  -3   0   2  825.08   46.13
   3  -3   2  773.76   44.10
   3  -3   3    8.78    4.55
   3  -3   4  473.02   34.67
   3  -3   4  450.68   37.04
   3  -3   5  584.43   45.55
   3  -3   5  649.93   49.00
   3  -3   6   17.13    5.98
   3  -3   6   16.37    9.79
   3  -3   6   15.06    7.82
   3  -3   7  801.15   61.81
  -3   0   7  703.90   40.25
   3  -3   8 1144.14   86.81
  -3   0   8  924.88   58.76
   3  -3   8 1111.66   78.55
  -3   0   8 1162.29   83.06
  -3   0   8 1008.07   60.42
   3  -3   9  186.39   17.67
   3  -3   9  192.85   27.41
  -3   0   9  199.22   15.71
   3  -3   9  144.91   28.72
  -3   0   9  117.66   24.18
  -3   0   9  117.22   14.60
   3  -3   9  116.50   15.05
  -3   0  10  878.51   51.58
   3  -3  10  949.47   56.67
   3  -3  10  897.04   72.09
  -3   0  10  805.72   71.78
   3  -3  10  812.95   80.11
  -3   0  10  815.70   53.42
   3  -3  10  854.00   55.62
  -3   0  11  311.65   38.33
   3  -3  11  317.99   26.73
   3  -3  11  323.36   46.00
   3  -3  11  256.42   35.25
  -3   0  11  282.41   23.56
   3  -3  11  326.10   26.45
   3  -3  12   98.97   14.29
  -3   0  12  143.26   24.52
  -3   0  12  108.02   12.30
   3  -3  12  100.32   27.31
   3  -3  12  116.49   14.51
   3  -3  13  387.78   29.55
   3  -3  13  375.94   50.21
   3  -3  13  351.42   30.15
  -3   0  13  392.43   42.91
   3  -3  14  286.98   25.35
   3  -3  14  286.12   23.82
  -3   0  14  293.47   22.47
   3  -3  15  499.73   33.99
   3  -3  15  466.54   32.83
   3  -3  16   23.50    5.56
   3  -3  16   26.70    6.00
  -3   0  17  138.86   12.67
   3  -3  17  131.06   11.75
   3  -3  18    8.18    2.32
   3  -2 -19  215.06   13.77
  -2  -1 -18    4.80    2.48
   3  -2 -18    2.64    2.61
  -1   3 -18    4.72    2.60
  -2  -1 -18    6.49    2.85
   3  -2 -17  428.39   28.86
  -2  -1 -17  438.82   27.88
  -2  -1 -17  438.00   29.63
   3  -2 -16  406.53   28.83
  -2  -1 -16  384.63   28.91
   3  -2 -15  145.95   15.85
  -2  -1 -15  138.61   15.60
  -2  -1 -14  842.23   71.79
   3  -2 -14  960.66   57.45
  -2  -1 -14  850.99   56.31
  -2  -1 -14  814.08   71.69
  -2  -1 -13   15.06    6.64
  -2  -1 -13   28.16   11.11
   3  -2 -13   17.23    7.32
  -2  -1 -13   15.56    9.88
  -2  -1 -12   45.32    9.23
  -1   3 -12   48.83    8.31
  -2  -1 -12   50.79   14.49
   3  -2 -12   45.52    9.72
  -1   3 -11  123.74   14.13
   3  -2 -11  134.95   16.13
  -2  -1 -11  120.82   23.11
   3  -2 -11  149.30   17.28
  -1   3 -10  181.56   21.42
  -2  -1 -10  171.95   18.48
   3  -2 -10  157.07   20.58
   3  -2 -10  165.57   17.65
   3  -2 -10  174.36   18.79
  -2  -1  -9    2.26    6.07
   3  -2  -9    2.76    3.31
   3  -2  -9   -0.98    4.41
  -2  -1  -9    1.89    3.58
   3  -2  -9    2.64    3.34
  -1   3  -9    1.27    3.40
  -2  -1  -8 1298.16   83.18
  -1   3  -8 1365.98   70.97
  -2  -1  -7   63.22   10.55
   3  -2  -7   49.90    9.54
  -1   3  -7   64.64   11.14
   3  -2  -7   54.20   12.44
   3  -2  -6 6026.08  318.90
   3  -2  -6 6343.98  331.08
  -2  -1  -5  674.78   51.75
   3  -2  -5  734.83   42.94
   3  -2  -5  714.10   52.84
  -2  -1  -4  364.84   30.29
  -2  -1  -3  515.99   35.77
  -2  -1  -2  786.30   47.46
  -2  -1  -1  123.90   11.38
   3  -2  -1  135.43   12.27
   3  -2   0  660.20   38.54
  -1   3   0  634.96   34.78
  -2  -1   1  714.84   42.56
   3  -2   1  708.82   41.85
  -2  -1   2 4786.92  247.10
   3  -2   2 4724.23  250.02
   3  -2   3 1259.61   74.50
   3  -2   4  440.46   34.29
   3  -2   5  956.25   64.76
   3  -2   6 1182.88   70.44
   3  -2   6 1254.97   82.13
  -2  -1   7  802.69   51.15
   3  -2   7  691.15   45.25
  -2  -1   7  719.33   43.61
  -1   3   7  727.17   54.62
   3  -2   8  127.45   13.88
  -2  -1   8   79.33   11.37
  -2  -1   8   94.36   20.07
  -1   3   8   98.61   17.79
   3  -2   8   93.46   19.13
   3  -2   9  157.84   16.48
  -2  -1   9  147.00   14.87
  -2  -1   9  124.83   14.44
   3  -2   9  155.48   25.19
  -2  -1   9  138.14   25.45
   3  -2  10   81.39   12.01
  -2  -1  10   99.68   11.47
  -2  -1  10   55.71   17.45
  -2  -1  10   92.42   11.58
   3  -2  10   80.98   11.24
  -2  -1  11 1187.57   70.42
  -2  -1  11 1281.19   93.72
   3  -2  11 1218.58   74.55
  -2  -1  11 1168.27   71.26
   3  -2  11 1235.19   72.52
   3  -2  11 1409.96  104.17
   3  -2  12  534.09   40.98
  -2  -1  12  586.39   55.80
  -2  -1  12  558.41   38.57
   3  -2  12  623.68   40.01
   3  -2  12  623.62   64.74
  -2  -1  13  147.25   25.40
  -2  -1  13  102.50   12.51
   3  -2  13  141.28   14.69
   3  -2  13   95.74   23.96
   3  -2  14 1263.44   73.27
   3  -2  14 1119.54   98.93
  -2  -1  14 1188.66   92.03
  -2  -1  14 1314.59   74.39
   3  -2  15   70.29    9.20
  -2  -1  15   36.76    7.73
   3  -2  16  379.16   25.46
  -2  -1  16  392.10   26.52
   3  -2  17    2.65    2.80
   3  -2  18   64.15    6.18
  -2  -1  19    2.51    1.63
  -2   3 -18  368.64   22.31
   3  -1 -18  352.08   22.30
  -1  -2 -18  316.05   21.09
   3  -1 -17   14.44    4.98
  -1  -2 -17   17.88    4.35
  -1  -2 -17   15.20    5.07
  -1  -2 -16  223.91   20.05
  -1  -2 -16  223.55   18.19
   3  -1 -16  248.66   19.92
  -1  -2 -15  117.18   13.98
   3  -1 -15   98.84   12.81
  -1  -2 -14   86.96   18.71
  -1  -2 -14   82.48   12.25
  -1  -2 -14   91.40   19.88
   3  -1 -14  115.29   14.06
  -1  -2 -13  294.14   37.33
  -1  -2 -13  284.74   37.20
  -1  -2 -13  264.13   24.05
  -2   3 -13  252.91   21.49
   3  -1 -13  276.26   24.34
  -1  -2 -12  520.33   50.89
  -1  -2 -12  422.33   48.65
   3  -1 -12  408.38   44.09
  -1  -2 -12  464.24   34.72
  -2   3 -12  449.92   32.22
   3  -1 -12  492.43   35.80
   3  -1 -11  108.26   20.41
  -1  -2 -11  130.33   23.58
   3  -1 -11  125.68   15.56
  -1  -2 -11  156.43   26.29
  -1  -2 -10  347.49   38.81
   3  -1 -10  265.72   31.83
  -1  -2 -10  255.16   33.98
   3  -1 -10  261.33   24.28
   3  -1  -9  181.26   20.15
   3  -1  -9  171.08   24.42
   3  -1  -8   22.69    6.76
  -1  -2  -7  364.23   30.12
  -1  -2  -6   73.35   12.67
  -1  -2  -6   65.70   13.62
  -2   3  -6   72.80    9.94
  -1  -2  -5  554.18   43.39
  -1  -2  -5  573.10   44.95
   3  -1  -5  553.47   33.74
  -2   3  -5  577.78   36.60
   3  -1  -4 1620.29   86.44
  -1  -2  -4 2093.38  109.84
  -1  -2  -4 1940.37   99.64
  -2   3  -4 1690.05   91.25
  -1  -2  -3  713.03   41.05
  -2   3  -3  545.17   33.10
  -1  -2  -2  772.60   47.33
  -1  -2  -1   54.03    7.98
   3  -1  -1   45.97    7.48
  -1  -2   0  114.74   11.58
   3  -1   0  102.72   11.26
   3  -1   1 2251.48  122.70
  -1  -2   1 2274.25  122.04
  -1  -2   2 2664.30  140.19
   3  -1   2 2685.61  142.51
   3  -1   3 1500.60   88.99
  -2   3   3 1641.75   85.45
   3  -1   4  465.54   36.16
  -1  -2   4  572.70   46.11
  -2   3   4  522.04   34.25
  -1  -2   5  482.94   39.99
  -2   3   5  408.47   32.68
  -2   3   6   40.80    9.54
  -1  -2   6   39.44    7.46
  -1  -2   6   48.73   10.83
   3  -1   6   50.92    8.05
  -2   3   7   93.28   14.66
  -1  -2   7   68.92   10.40
   3  -1   7   83.16   11.51
  -1  -2   7  104.71   14.31
   3  -1   8  272.63   24.12
  -1  -2   8  243.45   22.63
  -1  -2   8  309.32   23.70
  -1  -2   9   29.38    7.03
  -1  -2   9   35.55    7.71
   3  -1   9   28.03    7.71
  -2   3   9   55.03   12.32
  -1  -2  10 1461.95   85.67
  -2   3  10 1503.03   99.80
   3  -1  10 1541.24   88.95
  -1  -2  10 1573.89   86.67
  -1  -2  10 1416.38   85.11
  -2   3  11   35.07   11.97
  -1  -2  11   30.15    7.57
  -1  -2  11   35.06    7.74
  -1  -2  11   25.73    6.31
  -1  -2  12 1425.29   84.44
   3  -1  12 1506.61   83.34
  -1  -2  12 1463.59   84.24
  -2   3  12 1386.92   99.83
   3  -1  13  105.51   25.12
  -1  -2  13  154.89   16.43
   3  -1  13  120.97   13.02
   3  -1  14  387.38   48.44
  -1  -2  14  441.69   32.09
  -1  -2  15  708.19   45.64
  -1  -2  16   45.88    7.67
  -1  -2  17  173.70   14.35
   3  -1  17  158.54   13.53
   3  -1  18   45.78    4.95
  -1  -2  18   39.97    4.89
  -2   3  18   44.51    5.07
  -1  -2  18   55.34    6.64
   0  -3 -18    7.58    2.62
   3   0 -18   10.38    2.84
   0  -3 -18   12.00    2.84
   3   0 -17  131.03   11.66
   0  -3 -17  117.13   10.84
   3   0 -16   26.26    6.18
   0  -3 -16   27.23    5.81
   3   0 -15  440.90   31.68
   0  -3 -15  453.31   31.03
   0  -3 -14  231.91   33.67
   3   0 -14  324.86   24.62
   0  -3 -14  271.83   22.71
  -3   3 -14  264.98   21.45
  -3   3 -13  329.34   25.16
   3   0 -13  348.37   38.75
   0  -3 -13  392.19   42.92
   0  -3 -13  348.09   41.51
   0  -3 -13  319.73   27.41
   3   0 -13  340.94   27.27
   0  -3 -12   92.26   20.39
   3   0 -12   93.57   19.64
   0  -3 -12   98.04   21.38
   3   0 -12  117.45   14.31
   0  -3 -12   95.31   13.25
   3   0 -11  289.18   35.61
   0  -3 -11  340.91   40.26
   0  -3 -11  315.46   38.42
   3   0 -11  312.36   26.25
   0  -3 -11  295.22   25.36
   0  -3 -10  845.91   70.34
   0  -3 -10  830.38   61.97
   0  -3 -10  952.95   74.04
   0  -3 -10  864.20   54.34
   3   0 -10  801.13   68.45
   0  -3  -9  152.30   25.70
   0  -3  -9  169.84   22.56
   3   0  -9  149.52   24.19
   0  -3  -8  888.43   63.31
   0  -3  -8  768.92   66.57
   0  -3  -7  634.19   50.98
  -3   3  -7  679.87   42.78
  -3   3  -6   23.64    6.27
   0  -3  -6   22.14    8.38
   0  -3  -5  504.21   41.62
   0  -3  -5  580.79   47.17
  -3   3  -5  604.65   37.79
   0  -3  -4  435.87   35.10
   0  -3  -4  443.89   41.72
  -3   3  -4  487.68   30.04
   0  -3  -3   17.22    9.76
   0  -3  -3   14.17    4.94
   0  -3  -3    9.60    5.06
   3   0  -2  841.09   55.63
   0  -3  -2  897.18   55.32
   0  -3  -2 1031.89   73.62
   3   0  -1    3.17    3.01
   3   0   0 8750.48  420.11
   0  -3   0 6362.11  439.08
   0  -3   1   71.44   18.71
   3   0   2  195.96   14.56
   0  -3   2  217.35   30.10
  -3   3   3   23.31    5.75
   0  -3   3   16.30    8.87
   3   0   3   19.45    4.56
   0  -3   3   19.06    5.51
  -3   3   4 2998.45  153.50
   0  -3   4 2566.62  152.54
   0  -3   4 2797.97  165.67
  -3   3   5  143.30   16.44
   0  -3   5  114.29   18.52
   0  -3   5  112.68   15.89
   0  -3   6 1174.63   96.12
   0  -3   6 1457.28   85.59
   0  -3   7  671.35   63.79
   0  -3   7  850.47   52.62
   0  -3   8  691.34   59.30
   0  -3   8  647.50   45.60
  -3   3   8  762.62   53.81
   0  -3   8  711.76   45.08
   0  -3   9  428.70   42.93
   0  -3   9  425.45   30.64
  -3   3   9  384.89   36.56
   0  -3   9  376.11   28.88
   0  -3   9  370.83   29.77
  -3   3  10   95.75   16.92
   0  -3  10   68.12   16.52
   0  -3  10   85.81   11.72
   0  -3  10   66.58   10.63
   0  -3  10   84.64   11.86
   0  -3  11  344.04   27.48
   0  -3  11  343.40   27.39
  -3   3  11  346.35   36.16
   0  -3  11  357.24   27.76
   0  -3  11  348.75   39.26
   0  -3  12   42.61   14.62
  -3   3  12   49.90   13.27
   0  -3  12   45.21    9.06
   0  -3  12   45.00    8.59
   0  -3  12   31.82    7.79
   0  -3  12   28.57   14.39
   0  -3  13  450.44   47.17
   0  -3  13  480.77   34.68
   0  -3  13  440.88   32.30
   0  -3  13  455.94   53.00
   0  -3  14   46.21    9.08
   0  -3  14   37.97    7.31
   0  -3  15  772.70   48.28
   0  -3  15  722.57   44.80
   0  -3  16   18.62    5.43
   0  -3  17  304.79   22.39
   0  -3  17  332.64   22.97
  -3   3  18   24.06    4.16
   0  -3  18   28.19    4.94
   3   1 -17   80.10    7.95
   1  -4 -17   87.03    8.30
   1  -4 -17   86.18    8.91
   1  -4 -16  252.62   19.48
   1  -4 -16  230.32   17.98
   3   1 -16  223.64   17.73
   1  -4 -15  147.79   15.08
   3   1 -15  139.58   14.11
   1  -4 -15  164.66   15.07
   1  -4 -14  134.20   15.05
   3   1 -14  131.49   14.32
   1  -4 -14  146.60   15.17
   1  -4 -13  342.11   40.03
   3   1 -13  367.47   40.23
   1  -4 -13  324.17   27.33
   1  -4 -13  347.67   27.68
   3   1 -13  365.37   27.43
   1  -4 -12   68.58   11.11
   3   1 -12   70.09   17.55
   1  -4 -12   74.45   11.13
   3   1 -12   76.84   11.20
   1  -4 -12   82.97   19.53
   1  -4 -11   93.92   21.57
   1  -4 -11   78.39   11.83
   3   1 -11   97.01   19.84
   1  -4 -11   69.55   17.77
   1  -4 -11   94.63   12.98
   3   1 -11   97.75   12.67
   3   1 -10  261.41   34.79
   1  -4 -10  270.41   34.87
   1  -4 -10  250.15   34.95
   1  -4 -10  294.70   24.56
   3   1 -10  246.74   22.82
   1  -4 -10  303.31   24.11
   1  -4  -9  102.64   19.67
   3   1  -9   75.96   10.78
   1  -4  -9   51.43    9.71
   1  -4  -9   66.11   17.16
   1  -4  -9   77.49   13.42
   1  -4  -9   86.05   11.33
   1  -4  -9   66.14   13.24
   1  -4  -8 1022.50   82.11
   1  -4  -8 1049.86   74.49
   1  -4  -7    1.54    4.14
   1  -4  -7    7.77    5.71
   1  -4  -6 3239.91  168.76
   1  -4  -6 2582.10  161.43
   1  -4  -5  287.29   27.50
   1  -4  -4  764.95   52.40
   3   1  -3   82.86   12.93
   3   1  -2  419.08   33.24
   3   1  -1  420.20   32.70
   3   1   0  208.41   20.00
   1  -4   0  148.17   30.70
   3   1   1 2245.13  131.93
   1  -4   1 2748.72  163.60
   3   1   2  731.28   51.89
   1  -4   2  930.33   73.80
   3   1   3  564.06   33.58
   1  -4   4   15.06    7.04
   1  -4   4   15.47    6.10
   1  -4   5 1062.35   71.62
  -4   3   5  930.36   68.78
   1  -4   5  971.21   73.46
   1  -4   5 1175.34   63.84
   1  -4   6 1809.06  115.94
   1  -4   6 1987.35  117.69
  -4   3   6 1757.96  112.09
   1  -4   7 1274.36   94.74
   1  -4   7 1500.57   93.90
  -4   3   7 1297.64   87.13
  -4   3   8 1039.46   64.81
   1  -4   8  995.08   68.32
   1  -4   8  935.73   54.33
   1  -4   8  901.10   74.52
   1  -4   8  728.69   52.48
   1  -4   8  620.21   52.08
   1  -4   8  936.10   53.59
   1  -4   9  376.35   37.26
  -4   3   9  355.37   32.88
   1  -4   9  315.22   25.12
   1  -4   9  252.09   24.64
   1  -4   9  204.79   35.57
   1  -4   9  286.30   24.26
   1  -4   9  278.82   25.61
   1  -4  10   39.49    8.51
   1  -4  10   44.54   13.35
  -4   3  10   41.41   11.49
   1  -4  10   34.98   14.65
   1  -4  10   39.00    8.64
   1  -4  10   29.82    7.95
   1  -4  10   35.41    8.11
   1  -4  11  290.53   24.67
   1  -4  11  287.14   42.06
   1  -4  11  256.53   33.25
  -4   3  11  254.59   29.96
   1  -4  11  234.68   22.38
   1  -4  11  270.19   24.67
   1  -4  11  264.32   23.99
   1  -4  12  369.98   40.84
   1  -4  12  333.25   48.10
   1  -4  12  382.02   29.88
   1  -4  12  353.82   28.94
   1  -4  13   40.12    9.12
   1  -4  13   47.47    9.17
   1  -4  13   31.17   14.54
   1  -4  13   37.58   12.77
   1  -4  14  842.75   53.56
   1  -4  14  825.58   51.94
   1  -4  15   46.64    8.36
   1  -4  15   37.08    7.04
   1  -4  16  631.23   38.40
   1  -4  16  573.02   38.34
   1  -4  16  576.08   35.93
   1  -4  17   18.63    4.85
   1  -4  18   49.58    5.49
  -4   3  18   48.69    5.61
   2  -5 -17    5.02    2.34
   2  -5 -17    3.50    2.27
   2  -5 -16  445.72   29.03
   2  -5 -16  482.80   30.34
   2  -5 -15  155.70   14.91
   2  -5 -15  170.08   15.42
   2  -5 -15  189.19   16.74
   2  -5 -14   21.93    6.48
   2  -5 -14   28.05    6.61
   2  -5 -14   18.02    6.16
   2  -5 -13  261.83   22.45
   2  -5 -13  264.68   23.08
   2  -5 -12  154.50   28.00
   2  -5 -12  209.24   19.53
   3   2 -12  241.04   32.73
   2  -5 -12  201.27   20.22
   3   2 -11   18.75   10.71
   2  -5 -11   31.04    8.31
   2  -5 -11   15.27    6.20
   2  -5 -11   31.46   13.01
   2  -5 -10 1203.70   66.66
   2  -5 -10 1168.95   86.60
   2  -5  -9    9.75    6.78
   2  -5  -9   20.93    6.61
   2  -5  -9   31.59   12.40
   2  -5  -8 1591.05   98.51
   2  -5  -8 1065.78   80.47
   2  -5  -8 1201.89   75.21
   2  -5  -8 1397.87   75.83
   2  -5  -7  764.33   58.52
   2  -5  -7 1086.98   73.75
   2  -5  -6  219.79   28.93
   2  -5  -6  248.37   19.97
   2  -5  -5 1109.28   79.00
   2  -5  -5 1082.95   62.64
   2  -5  -4  336.00   33.62
   2  -5  -4  287.18   20.85
   3   2  -3 1893.85  105.49
   2  -5  -3 1653.35   91.79
   3   2  -2  125.08   17.15
   2  -5  -2  133.93   11.16
   3   2  -1  312.92   28.08
   2  -5  -1  281.44   19.17
   3   2   0   12.00    5.21
   2  -5   0    8.58    2.72
   2  -5   1 1527.78   86.91
   3   2   1 1560.08   98.06
   2  -5   1 1735.56   86.49
   2  -5   2 1315.56   65.02
   3   2   2 1309.29   77.78
   2  -5   3 1499.73   76.62
   2  -5   3 1176.02   83.88
   2  -5   4  869.97   55.95
   2  -5   4  673.72   46.90
   2  -5   5   13.22    5.65
   2  -5   5   11.74    7.07
   2  -5   5   14.06    5.82
   2  -5   6  662.66   43.88
   2  -5   6  669.89   57.08
   2  -5   6  716.21   53.24
   2  -5   6  597.82   42.80
   2  -5   7   37.92    8.39
   2  -5   7   51.95    9.16
   2  -5   7   52.55   13.32
  -5   3   7   37.14   11.94
   2  -5   7   43.27    8.50
   2  -5   7   50.03    9.58
   2  -5   7   46.99   15.19
   2  -5   8   89.46   14.76
   2  -5   8  137.53   15.97
   2  -5   8  106.77   24.71
   2  -5   8  172.65   16.67
   2  -5   8  140.45   21.52
  -5   3   8  148.83   21.94
  -5   3   9   18.06    8.71
   2  -5   9   20.36    9.18
   2  -5   9   17.70    7.07
   2  -5   9    9.01    6.10
   2  -5   9   18.55   10.93
   2  -5   9   23.67    7.05
   2  -5  10  962.53   59.28
  -5   3  10  927.12   67.94
   2  -5  10  951.43   72.83
   2  -5  10  928.37   60.82
   2  -5  11   12.43    6.34
   2  -5  11   -4.11   12.08
   2  -5  11    2.26    5.43
   2  -5  12  785.10   66.09
   2  -5  12  795.79   80.33
   2  -5  12  806.20   53.28
   2  -5  13  145.21   16.23
   2  -5  14  247.44   20.95
   2  -5  14  223.46   20.94
   2  -5  15  489.84   32.84
   2  -5  15  533.26   34.60
   2  -5  15  456.81   33.71
   2  -5  16   15.44    4.36
   2  -5  16   22.68    5.34
   2  -5  17   72.50    7.86
   2  -5  18    3.40    1.68
   3  -6 -16    7.00    2.78
   3  -6 -16    6.77    2.97
   3  -6 -15  366.70   24.47
   3  -6 -15  346.32   25.32
   3  -6 -14    2.59    3.47
   3  -6 -14    2.20    3.30
   3  -6 -13  166.95   16.83
   3  -6 -13  155.24   17.24
   3  -6 -13  158.12   15.49
   3  -6 -12   34.56    9.11
   3  -6 -12   28.55    6.67
   3  -6 -12   32.37    8.46
   3  -6 -11  210.35   19.02
   3  -6 -11  194.63   21.73
   3  -6 -11  172.60   19.97
   3   3 -11  199.19   31.55
   3  -6 -10   18.59    9.03
   3  -6 -10   16.01    7.12
   3  -6 -10   12.41    6.24
   3  -6 -10   11.80    4.90
   3  -6  -9  560.69   37.02
   3  -6  -9  459.77   50.29
   3  -6  -9  510.55   39.66
   3  -6  -9  452.96   37.12
   3  -6  -8  524.05   52.16
   3  -6  -8  509.77   37.77
   3  -6  -8  458.57   35.46
   3  -6  -7  801.20   66.53
   3  -6  -7  620.88   53.06
   3  -6  -7  804.22   49.68
   3  -6  -7  729.80   47.31
   3  -6  -6  386.62   28.53
   3  -6  -6  336.58   33.39
   3  -6  -6  402.69   42.61
   3  -6  -5   49.10    7.76
   3  -6  -5   35.94   11.64
   3  -6  -5   41.93    7.26
   3  -6  -4  357.28   43.53
   3  -6  -4  677.30   37.35
   3  -6  -3   65.16    8.24
   3  -6  -3   72.86   13.24
   3  -6  -2  469.73   33.62
   3  -6  -2  448.75   29.33
   3   3  -2  445.62   38.79
   3  -6  -1   14.93    3.71
   3   3  -1   12.89    6.47
   3  -6   0 2041.94  108.61
   3   3   0 1976.62  121.27
   3  -6   1  254.46   18.37
   3   3   1  247.28   26.72
   3  -6   2  475.51   30.18
   3   3   2  479.37   41.39
   3  -6   2  485.42   29.85
   3   3   3   16.71    7.79
   3  -6   3   14.13    3.69
   3  -6   3   24.45    6.73
   3  -6   3    9.94    3.70
   3   3   4 1321.66   87.73
  -6   3   4 1227.67   70.02
   3  -6   4 1292.38   71.06
   3   3   5  914.84   54.38
   3  -6   5 1048.78   56.95
  -6   3   5  860.04   50.72
   3  -6   5 1004.09   56.25
   3  -6   5  867.66   52.35
   3   3   6  322.90   25.06
   3  -6   6  331.95   26.95
   3  -6   6  314.58   24.06
   3  -6   6  366.32   26.74
   3  -6   6  331.24   26.84
   3   3   7  440.23   31.84
   3  -6   7  418.00   30.71
   3  -6   7  303.47   35.12
  -6   3   7  296.28   37.13
   3  -6   7  363.38   31.48
   3  -6   7  459.60   32.76
   3  -6   8  460.10   35.23
   3  -6   8  429.42   31.98
   3  -6   8  359.60   39.54
   3  -6   8  474.56   34.29
  -6   3   8  315.05   39.14
   3  -6   9   81.63   16.45
   3  -6   9   80.17   12.64
   3  -6   9   62.14   10.85
   3  -6   9   56.92   11.76
   3  -6  10   61.60   11.06
   3  -6  10   55.66   11.26
   3  -6  11  245.25   23.68
   3  -6  11  267.91   24.99
   3  -6  12   38.66    8.92
   3  -6  12   41.89    9.35
   3  -6  13  560.42   39.02
   3  -6  13  538.72   38.45
   3  -6  14   -1.52    3.52
   3  -6  14    1.38    3.97
   3  -6  15  470.35   33.03
   3  -6  15  575.88   34.16
   3  -6  16   24.22    4.41
   3  -6  17   76.14    6.95
   3  -6  17   64.82    6.82
   4  -7 -15  233.11   15.78
   4  -7 -14  197.73   15.88
   4  -7 -13  348.79   25.90
   4  -7 -12  168.85   17.35
   4  -7 -11   17.98    6.52
   4  -7 -10  211.83   23.07
  -7   3 -10  383.68   41.10
   4  -7  -9  331.27   29.28
  -7   3  -9  404.62   43.47
   4  -7  -8  504.44   37.40
   4  -7  -7    2.58    4.62
   4  -7  -6 1382.32   80.30
   4  -7  -6 1384.30   91.79
   4  -7  -5   65.35    9.18
   4  -7  -5   64.34   14.73
   4  -7  -4  301.91   22.23
   4  -7  -4  268.63   30.58
   4  -7  -3   63.41   14.14
   4  -7  -3   55.14    8.59
   4  -7  -2  186.01   16.31
   4  -7  -2  194.85   23.60
   4  -7  -2  182.68   15.55
   3   4  -2  178.68   23.32
   3   4  -2  149.89   16.71
   4  -7  -1 1883.21   97.44
   4  -7  -1 1727.22   95.80
   3   4  -1 1763.28  109.97
   3   4  -1 1610.99   98.55
   4  -7   0   17.38    4.66
   3   4   0    3.32    6.34
   3   4   0   16.86    5.48
   4  -7   1  977.22   57.62
   3   4   1  974.96   70.99
   4  -7   1 1046.64   57.28
   3   4   1  934.80   59.59
   4  -7   2   19.25    4.53
   3   4   2   30.71    9.99
   4  -7   2   26.66    5.48
   3   4   2   22.68    5.86
   4  -7   2   18.83    4.57
   3   4   3   37.07   11.33
   4  -7   3   30.97    5.86
   4  -7   3   26.77    5.54
   3   4   3   30.14    6.72
   4  -7   3   32.97    6.41
   3   4   4   75.89   10.60
   3   4   4   85.69   17.78
   4  -7   4   77.22   11.06
   4  -7   4   68.47    9.17
  -7   3   4   63.70    8.86
   4  -7   4   64.47    8.94
   4  -7   4   72.65   10.19
   3   4   5  193.69   18.56
   4  -7   5  198.32   19.55
   4  -7   5  208.71   19.93
   3   4   5  183.02   27.63
   4  -7   5  210.33   18.38
  -7   3   5  205.57   17.42
   4  -7   5  184.82   17.69
   4  -7   5  238.03   20.47
   3   4   6   24.99    6.79
   4  -7   6   22.02    6.35
   3   4   6   26.93   11.69
   4  -7   6    8.77    5.03
   4  -7   6   28.06    6.94
  -7   3   6   25.30    5.97
   4  -7   6   24.85    7.33
   4  -7   7 1890.22  100.40
   4  -7   7 1752.33  102.04
   3   4   7 1880.02  127.01
   4  -7   8  334.92   27.98
   4  -7   8  314.94   26.97
   4  -7   9  393.55   35.62
   4  -7   9  408.75   35.07
   4  -7  10   87.27   13.37
   4  -7  10   30.15    9.36
   4  -7  11   16.92    6.59
   4  -7  11   14.89    6.64
   4  -7  12  279.66   24.65
   4  -7  12  299.69   25.20
   4  -7  12  262.95   24.67
   4  -7  13   21.08    6.36
   4  -7  13   22.96    6.54
   4  -7  13   15.99    5.18
   4  -7  14  216.26   17.81
   4  -7  14  236.48   18.85
   4  -7  14  186.49   16.75
   4  -7  15  295.64   21.03
   4  -7  15  303.06   20.74
   4  -7  16  388.84   23.62
   4  -7  16  411.18   24.19
   4  -6 -16  290.82   19.47
   4  -6 -16  280.29   19.02
  -6   2 -15    8.81    3.03
   4  -6 -15   10.16    4.24
   4  -6 -15   13.69    4.45
  -6   2 -14  572.07   37.85
   4  -6 -14  678.16   41.55
   4  -6 -14  646.67   41.10
  -6   2 -13   72.18    9.89
   4  -6 -13  109.86   13.70
   4  -6 -13   91.87   12.75
  -6   2 -12  211.67   20.00
   4  -6 -12  286.24   25.02
   4  -6 -12  264.19   24.38
   2   4 -11  700.24   60.64
   4  -6 -11  640.41   47.66
   4  -6 -11  615.73   47.95
  -6   2 -10   84.70   19.80
   2   4 -10   36.92   14.68
  -6   2 -10   59.02   10.21
   4  -6 -10   60.18    9.81
   4  -6 -10   32.82    9.62
   4  -6 -10   29.65    9.19
   4  -6  -9  103.47   14.72
   4  -6  -9  116.95   15.58
  -6   2  -8    9.48    5.01
   4  -6  -8   22.65    7.34
   4  -6  -8   17.16    7.40
   4  -6  -7  176.52   18.66
   4  -6  -7  213.40   20.04
   4  -6  -6  666.96   44.39
   4  -6  -6  711.34   45.19
   4  -6  -5  270.44   29.67
   4  -6  -5  317.46   24.11
   4  -6  -5  339.19   24.64
   4  -6  -5  338.30   24.61
   4  -6  -4  745.80   45.14
   4  -6  -4  733.67   44.93
   4  -6  -3  514.68   32.83
   4  -6  -2  249.83   18.74
   2   4  -2  279.39   26.48
   4  -6  -1  530.05   32.75
   2   4  -1  506.99   40.57
   4  -6  -1  543.91   45.12
   4  -6   0  294.95   20.07
   2   4   0  310.09   28.17
   4  -6   0  292.39   20.37
   4  -6   1  121.79   11.12
   2   4   1  127.65   17.55
   4  -6   1  134.40   11.85
   4  -6   2  339.03   22.59
   2   4   2  312.83   30.81
   4  -6   2  319.58   22.73
   2   4   3  471.31   38.03
   4  -6   3  438.58   26.47
   4  -6   3  447.80   25.91
  -6   2   4   25.61    5.66
   4  -6   4   29.10    6.11
   4  -6   4   27.79    6.38
   4  -6   4   21.87    5.27
   2   4   4   34.71   10.49
   4  -6   5  561.81   38.28
   2   4   5  583.52   38.13
  -6   2   5  609.50   37.49
   4  -6   5  540.23   39.85
   4  -6   5  615.60   40.14
   4  -6   6 1233.56   63.71
  -6   2   6 1244.43   60.64
   4  -6   6 1226.43   65.82
   2   4   6 1212.60   62.39
  -6   2   7   33.88    6.61
   4  -6   7   18.53    7.15
   4  -6   7   18.42    6.98
  -6   2   8 1658.41   85.18
   4  -6   8 1667.94   90.73
  -6   2   8 1455.10  106.01
   4  -6   9   68.24   12.42
  -6   2   9   64.33   18.07
  -6   2  10  189.21   28.84
   4  -6  10  208.75   21.98
   4  -6  11    8.52    6.29
  -6   2  11   21.53    8.59
   4  -6  11   12.77    7.36
   4  -6  12   91.58   13.53
   4  -6  12   74.04   11.92
   4  -6  13  100.83   14.00
   4  -6  13  131.90   14.68
   4  -6  14  321.29   26.81
   4  -6  14  338.68   25.58
   4  -6  15  244.44   20.78
   4  -6  15  284.85   20.58
   4  -6  16  427.11   26.87
   4  -6  17  258.56   15.62
  -6   2  17  254.49   15.52
  -5   1 -17  100.84    8.29
   4  -5 -17  115.37    9.48
   4  -5 -16    4.07    2.66
  -5   1 -16    4.18    2.51
   4  -5 -16    1.48    3.14
   4  -5 -15  119.36   12.67
  -5   1 -15  126.71   12.38
   4  -5 -15  110.21   12.72
   4  -5 -14   -0.84    4.85
  -5   1 -14    3.53    3.49
   4  -5 -14   -0.77    3.82
   4  -5 -13  211.13   21.31
   4  -5 -13  194.15   20.43
  -5   1 -13  220.59   19.88
  -5   1 -12   -2.77    8.79
   4  -5 -12   -1.13    5.09
   1   4 -11  642.85   56.78
   4  -5 -11  704.86   51.13
  -5   1 -11  723.23   49.40
   4  -5 -11  693.54   47.82
  -5   1 -11  798.17   68.59
  -5   1 -10    5.65    5.25
   4  -5 -10    9.88    5.44
   4  -5 -10    1.29    6.93
  -5   1 -10   16.59   10.49
   1   4 -10    2.17    5.82
   4  -5  -9  379.83   31.46
  -5   1  -9  391.80   32.94
   4  -5  -9  424.93   34.42
   4  -5  -8  788.61   43.99
  -5   1  -8  806.87   42.62
   4  -5  -7   18.69    5.84
   4  -5  -7   19.30    6.21
   4  -5  -6  374.60   27.26
   4  -5  -5    9.92    3.54
   4  -5  -5   12.46    5.66
   4  -5  -4  830.20   48.62
   4  -5  -4  832.65   55.64
  -5   1  -4  838.12   58.60
   4  -5  -3  399.75   26.98
   4  -5  -3  506.58   36.45
  -5   1  -3  451.45   33.57
   1   4  -2  488.13   34.68
   4  -5  -2  447.44   28.76
   4  -5  -2  491.93   38.31
  -5   1  -2  482.11   32.45
   1   4  -1 1107.18   67.49
   4  -5  -1 1114.37   61.13
   4  -5  -1 1140.11   62.05
   4  -5  -1 1110.86   72.51
  -5   1  -1 1068.51   61.82
   4  -5   0 2323.28  114.86
   1   4   0 2274.67  122.56
   4  -5   0 2241.44  115.69
   4  -5   1  182.60   13.42
   1   4   1  164.19   18.03
   4  -5   1  183.52   14.27
   1   4   2  408.51   32.96
  -5   1   2  411.10   28.23
   4  -5   2  410.56   25.47
   4  -5   2  378.59   26.23
   4  -5   2  457.03   35.65
   4  -5   3  714.52   42.47
   4  -5   3  844.38   52.47
   4  -5   3  718.38   44.05
   4  -5   4  993.81   55.50
  -5   1   4  844.87   52.75
   4  -5   4  902.24   54.45
   4  -5   4 1011.94   60.82
   4  -5   5  239.87   21.21
  -5   1   5  256.57   19.28
   4  -5   5  254.11   23.07
  -5   1   6  476.30   26.74
   4  -5   6  226.68   25.36
   4  -5   7   54.20   10.47
  -5   1   7   66.49    9.19
   4  -5   8 1572.36  121.06
   4  -5   8 1590.03   92.25
   4  -5   8 1444.38   91.68
  -5   1   8 1593.96   88.87
   4  -5   9  472.87   60.25
   4  -5   9  440.96   37.88
   4  -5   9  588.45   39.88
  -5   1   9  435.18   51.94
  -5   1   9  511.34   36.51
   4  -5  10  133.27   16.96
  -5   1  10  125.84   25.11
   4  -5  10   77.26   14.61
  -5   1  10  100.23   13.68
   4  -5  10   98.87   28.70
   4  -5  11 1184.28   75.51
   4  -5  11 1168.53  109.66
   4  -5  11 1188.96   74.43
  -5   1  11 1196.55   91.62
   4  -5  12   -4.42    7.50
   4  -5  12    0.96    4.73
  -5   1  12    2.36    5.65
   4  -5  13  479.67   35.14
   4  -5  14    0.76    4.17
   4  -5  15   92.89   11.04
   4  -5  16    3.62    3.25
   4  -5  16    6.09    3.29
   4  -5  17  159.84   11.60
  -5   1  17  134.44   11.44
   4  -4 -17   16.85    3.64
  -4   0 -17   20.50    3.57
  -4   0 -17   15.93    3.81
   4  -4 -16   77.89    9.03
   0   4 -16   69.88    7.55
  -4   0 -16   85.87    9.91
  -4   0 -15   56.42    9.03
  -4   0 -14   74.46   11.13
  -4   0 -13  421.58   46.06
  -4   0 -13  514.04   52.62
  -4   0 -13  496.86   36.16
  -4   0 -12  183.90   30.23
  -4   0 -12  159.76   26.28
  -4   0 -11  169.28   28.52
  -4   0 -11  163.42   19.10
  -4   0 -10  888.06   64.82
   0   4 -10 1002.94   72.14
   4  -4 -10 1050.67   64.96
  -4   0  -9   50.24   11.11
  -4   0  -9   63.40   18.49
   0   4  -9   59.43   13.16
   4  -4  -9   86.12   12.32
  -4   0  -8 1099.67   51.40
  -4   0  -8 1042.17   71.45
  -4   0  -7   72.87   17.08
  -4   0  -6  670.95   56.93
   4  -4  -5  113.72   17.53
  -4   0  -5  209.19   23.82
   4  -4  -4  401.92   38.84
  -4   0  -4  766.08   46.27
   4  -4  -3  108.65   13.82
  -4   0  -3  119.92   14.30
  -4   0  -2  685.97   43.55
   0   4  -1  595.71   37.97
  -4   0  -1  632.09   38.03
   0   4   0  466.77   30.97
   0   4   1 2033.33  111.64
  -4   0   1 2018.75  112.13
   4  -4   2  122.51   10.03
  -4   0   2  130.62   12.83
   4  -4   3  631.79   36.87
  -4   0   4  411.55   25.99
   4  -4   4  382.74   26.14
   4  -4   5  531.57   45.22
  -4   0   5  491.55   30.74
   4  -4   5  440.42   32.63
   4  -4   6  234.54   30.03
  -4   0   6  255.37   18.19
   4  -4   7 1104.98   81.43
  -4   0   7 1016.82   55.76
   4  -4   8  155.97   29.82
   4  -4   8  149.67   16.60
   4  -4   8  169.69   18.44
  -4   0   8  177.60   16.81
   4  -4   9  979.77   89.21
   4  -4   9  809.71   57.36
  -4   0   9 1025.06   82.64
  -4   0   9  880.64   56.62
  -4   0  10    9.48    9.33
  -4   0  10   19.28    6.99
   4  -4  10   17.23   12.68
   4  -4  10   18.30    6.88
  -4   0  11  147.78   17.13
   4  -4  11  185.72   36.93
   4  -4  11  192.90   20.21
  -4   0  11  216.12   33.39
  -4   0  12  885.83   56.20
   4  -4  12  994.20   60.25
   4  -4  12  875.47   88.92
  -4   0  12  936.55   77.10
   4  -4  12  896.07   60.18
   4  -4  13  158.23   33.92
  -4   0  13  160.34   27.16
   4  -4  13  214.71   19.92
  -4   0  14  528.51   34.46
   4  -4  15   28.72    6.52
   4  -4  16  193.95   16.16
   4  -4  17   69.21    7.20
   4  -4  17   55.13    7.76
  -4   0  17   50.66    6.94
  -4   0  18  187.82   13.12
  -3  -1 -18   49.55    5.84
   4  -3 -18   51.01    5.75
   4  -3 -17   15.09    3.82
  -3  -1 -17   17.59    4.53
   4  -3 -17   19.98    4.66
  -3  -1 -17   13.83    3.33
  -1   4 -17   15.51    3.66
   4  -3 -16  595.35   38.40
  -3  -1 -16  592.50   38.76
   4  -3 -15   40.92    8.91
  -3  -1 -15   44.29    8.65
   4  -3 -14  847.39   53.74
  -3  -1 -14  778.27   52.55
  -3  -1 -13   58.35   10.69
  -3  -1 -13   41.29   15.75
  -3  -1 -13   62.23   16.70
   4  -3 -13   59.68   11.92
  -3  -1 -12  299.76   40.58
  -3  -1 -12  340.72   42.19
   4  -3 -12  352.98   30.37
  -3  -1 -11  253.69   24.73
   4  -3 -11  234.31   24.59
  -3  -1 -11  274.05   36.92
  -3  -1 -10   26.18    8.41
  -3  -1 -10   22.03   12.43
   4  -3 -10   29.17    8.73
   4  -3 -10   26.35   10.11
  -3  -1  -9  245.47   23.90
  -3  -1  -9  304.77   37.13
   4  -3  -9  199.67   23.06
  -1   4  -9  260.08   25.74
   4  -3  -9  242.91   29.57
  -3  -1  -8  920.55   57.10
  -3  -1  -8  797.02   70.93
   4  -3  -8  878.34   57.56
   4  -3  -8  951.04   67.93
  -1   4  -8  850.41   60.00
  -1   4  -7  998.04   66.99
  -3  -1  -7  791.78   73.99
   4  -3  -6 1990.38  113.80
  -3  -1  -6 1596.99  112.35
   4  -3  -5 1129.71   74.65
  -3  -1  -5 1062.05   73.89
   4  -3  -4    8.22    5.72
  -3  -1  -4   13.89    6.23
   4  -3  -3  567.34   44.44
  -3  -1  -3  610.12   41.50
  -3  -1  -2  755.80   47.60
  -3  -1  -1 2293.56  123.99
   4  -3   0  210.85   16.89
  -1   4   0  191.73   13.31
  -3  -1   0  207.82   18.53
   4  -3   1  365.56   25.78
  -3  -1   1  401.65   28.06
   4  -3   2  399.70   27.60
  -3  -1   2  424.68   29.05
   4  -3   3   77.52    9.63
   4  -3   4  721.59   52.27
   4  -3   5  243.21   28.10
  -3  -1   5  283.58   20.00
   4  -3   5  282.37   21.91
   4  -3   6 3482.41  182.44
  -3  -1   6 3106.80  159.59
   4  -3   7    7.32    6.54
  -3  -1   7    1.32    3.88
   4  -3   8 1465.81  104.81
  -3  -1   8 1244.85   75.95
   4  -3   9   93.04   13.42
  -3  -1   9   69.46   10.66
  -3  -1   9  119.72   25.51
  -3  -1   9   67.67   11.50
   4  -3   9   92.28   23.71
   4  -3   9   58.52   10.12
   4  -3  10  251.38   42.08
   4  -3  10  277.49   25.09
  -3  -1  10  308.14   26.04
   4  -3  10  304.41   26.85
  -3  -1  10  287.39   23.87
  -3  -1  10  316.97   41.77
  -3  -1  11  114.08   24.29
   4  -3  11  143.15   30.56
   4  -3  11  111.95   14.16
  -3  -1  11   99.68   13.52
  -3  -1  11   79.77   11.09
   4  -3  11   95.92   14.36
  -3  -1  12  107.12   22.46
   4  -3  12   80.33   11.75
  -3  -1  12   89.33   12.04
  -3  -1  12   68.51    9.68
   4  -3  12   90.23   24.78
   4  -3  13  361.84   28.23
   4  -3  13  337.56   48.76
  -3  -1  13  437.16   45.66
  -3  -1  13  375.36   28.17
  -3  -1  14  183.84   17.36
  -3  -1  15  150.32   14.32
  -3  -1  16  245.15   19.77
   4  -3  16  269.20   20.19
  -3  -1  17  101.89   10.27
   4  -3  17  107.81   10.08
  -3  -1  18   35.51    4.92
   4  -3  18   32.01    4.07
  -2  -2 -18   34.81    4.90
  -2   4 -18   27.20    3.94
   4  -2 -18   36.42    4.84
  -2  -2 -17  240.99   18.32
   4  -2 -17  241.66   17.67
  -2  -2 -17  214.80   15.71
  -2  -2 -16  218.49   17.98
   4  -2 -16  204.81   17.34
  -2  -2 -16  160.16   14.43
  -2  -2 -15  194.98   19.22
   4  -2 -15  234.57   20.27
   4  -2 -14  131.51   15.81
  -2  -2 -14  113.18   14.67
  -2  -2 -13  158.98   27.34
  -2  -2 -13  101.36   14.42
  -2  -2 -13  108.12   22.52
   4  -2 -13  125.08   15.77
   4  -2 -12  346.31   29.93
  -2  -2 -12  339.08   41.54
  -2  -2 -12  334.07   28.59
  -2  -2 -11  355.48   44.28
   4  -2 -11  398.16   33.07
   4  -2 -10  172.93   21.06
   4  -2 -10  201.23   27.76
  -2  -2 -10  199.28   30.96
   4  -2  -9  379.33   37.26
  -2  -2  -9  385.12   42.53
   4  -2  -8  329.79   27.78
   4  -2  -8  396.08   38.43
  -2  -2  -7  470.03   48.00
  -2  -2  -7  577.74   45.67
   4  -2  -7  569.23   48.54
  -2  -2  -6  438.85   40.35
  -2  -2  -6  376.59   38.40
  -2   4  -6  416.79   29.85
  -2  -2  -5  559.24   44.39
  -2   4  -5  542.60   35.64
  -2  -2  -4 2813.42  157.82
  -2  -2  -3  325.43   27.00
  -2  -2  -2 1112.72   66.59
  -2  -2  -1  109.85   13.47
   4  -2  -1  123.44   13.57
  -2  -2   0  531.41   36.07
   4  -2   0  492.12   34.63
   4  -2   1    0.71    2.40
  -2  -2   1    3.61    2.87
   4  -2   2  140.46   14.64
   4  -2   3  154.01   17.07
  -2  -2   3  167.70   13.50
   4  -2   3  160.18   16.77
   4  -2   4 6202.06  329.04
   4  -2   5  874.51   59.87
  -2  -2   5  813.43   48.87
   4  -2   6 1022.88   71.67
  -2  -2   6 1054.06   74.13
  -2  -2   6  933.36   57.35
  -2  -2   7  485.38   42.57
   4  -2   7  560.07   50.08
  -2  -2   7  430.16   32.64
   4  -2   8  314.03   39.67
  -2  -2   8  231.16   22.11
   4  -2   9  103.46   23.95
  -2  -2   9  107.96   13.91
  -2  -2   9   94.90   13.03
  -2  -2  10   36.25    9.01
  -2  -2  10   34.06    9.00
   4  -2  10   57.24   20.21
  -2  -2  11  511.78   38.39
   4  -2  11  666.75   66.91
  -2  -2  11  573.46   56.97
  -2  -2  11  562.19   38.63
  -2  -2  12   40.02   15.14
  -2  -2  12   35.24    8.41
  -2  -2  12   43.98    8.45
   4  -2  12   32.64   14.56
  -2  -2  13  691.95   46.13
   4  -2  13  688.75   70.36
  -2  -2  13  751.75   64.61
  -2  -2  14  109.24   13.44
  -2  -2  15  501.41   34.84
  -2  -2  15  527.40   35.23
  -2  -2  16   24.59    6.16
  -2  -2  16   26.81    5.94
   4  -2  17   80.57    8.41
  -2  -2  17   63.90    8.07
  -2  -2  17   64.93    7.45
   4  -2  18  139.94   10.22
  -2  -2  18  143.39   11.35
   4  -1 -18  321.46   19.72
   4  -1 -17   74.61    7.96
  -1  -3 -17   58.68    6.57
  -1  -3 -17   63.13    7.43
  -1  -3 -16    9.73    3.60
   4  -1 -16   11.58    4.94
   4  -1 -15  198.34   17.61
  -1  -3 -15  164.65   15.10
  -1  -3 -14   14.71    5.57
   4  -1 -14   10.22    5.99
   4  -1 -13  167.78   26.09
  -1  -3 -13  168.14   28.97
  -1  -3 -13  224.91   32.07
   4  -1 -13  217.27   20.74
   4  -1 -12  460.73   47.19
  -1  -3 -12  504.09   36.93
  -1  -3 -12  459.88   51.00
   4  -1 -12  485.71   37.04
  -1  -3 -12  570.75   55.99
  -1  -3 -11   43.77   12.18
   4  -1 -11   87.43   18.51
  -1  -3 -11   60.47   16.79
   4  -1 -11   53.02   10.69
  -1  -3 -11   48.55   14.37
  -1  -3 -10 1972.80  129.37
  -1  -3 -10 2116.26  140.86
   4  -1 -10 1862.72  117.48
  -1  -3 -10 2271.22  118.55
  -1  -3  -9   78.36   16.74
  -1  -3  -9   93.78   12.75
   4  -1  -9   45.55   10.12
  -1  -3  -8  503.59   37.19
  -1  -3  -7    6.50    5.53
  -1  -3  -7   12.76    7.66
  -1  -3  -6   34.21   11.07
  -1  -3  -6   77.15   15.22
  -1  -3  -5   50.09   11.62
  -1  -3  -5   89.34   17.59
  -1  -3  -5   55.77   11.77
  -1  -3  -4 1779.28  107.59
  -1  -3  -4 1874.64  119.85
  -1  -3  -4 1744.09  105.71
  -1  -3  -3   15.88    6.02
  -1  -3  -3   24.46   11.02
  -1  -3  -2 1693.29  119.50
   4  -1  -1 1752.45  105.69
  -1  -3  -1 1962.78  106.48
  -1  -3   0  659.24   43.29
   4  -1   0  636.98   43.59
  -1  -3   0  551.43   62.97
   4  -1   1  114.36   14.18
  -1  -3   1  144.95   27.44
   4  -1   2  386.42   31.76
  -1  -3   2  504.79   52.39
  -1  -3   3  798.50   49.79
   4  -1   3  786.76   50.70
  -1  -3   4   27.50    6.81
   4  -1   4   25.35    6.98
  -1  -3   4   26.08   12.14
  -3   4   5 2204.53  126.40
   4  -1   5 2393.83  134.72
  -1  -3   5 2511.69  147.84
  -1  -3   5 2386.69  133.35
  -1  -3   6 1110.23   69.78
  -1  -3   6  957.05   71.87
   4  -1   6 1116.39   71.60
  -3   4   6 1085.95   63.13
   4  -1   7  863.55   64.46
  -1  -3   7  824.58   61.54
  -1  -3   7  660.60   56.06
  -1  -3   7  638.59   46.73
  -3   4   7  796.52   53.21
   4  -1   8    2.73    4.65
  -1  -3   8   11.18    5.37
  -3   4   8   14.65    7.04
  -1  -3   8    5.41    9.18
  -1  -3   9  240.09   23.62
  -1  -3   9  323.04   39.10
  -1  -3   9  224.30   21.91
  -1  -3   9  301.17   24.14
   4  -1   9  248.34   37.12
  -1  -3  10  489.32   52.42
  -1  -3  10  567.52   39.45
  -1  -3  10  469.95   52.95
   4  -1  10  595.50   60.81
  -1  -3  10  508.00   37.30
  -1  -3  10  554.85   38.39
  -1  -3  11   63.84   18.01
  -1  -3  11   20.96   13.16
   4  -1  11   53.47   17.63
  -1  -3  11   59.44   10.58
  -1  -3  11   44.27    8.63
  -1  -3  11   44.22    9.81
  -1  -3  12 1165.12   67.61
  -1  -3  12 1065.86   84.82
  -1  -3  12 1072.24   67.15
  -1  -3  12 1115.24   90.82
   4  -1  12 1206.74   95.80
  -1  -3  12 1074.88   66.86
  -1  -3  12 1053.31   65.10
  -1  -3  13   64.86   10.68
  -1  -3  13   54.43    8.67
  -1  -3  13   65.33   16.95
   4  -1  13   70.35   18.22
  -1  -3  13   36.92   14.14
  -1  -3  14  419.47   31.45
  -1  -3  14  403.78   30.81
  -1  -3  15  219.12   18.98
  -1  -3  15  189.53   18.18
  -1  -3  16  131.54   12.93
  -1  -3  16  109.71   12.28
  -1  -3  17    2.27    2.99
  -1  -3  17    7.14    3.60
  -1  -3  17    3.17    2.24
   0  -4 -17   48.01    6.18
   4   0 -17   44.32    5.66
   0  -4 -17   59.33    6.95
   0  -4 -16  165.75   14.93
   4   0 -16  165.88   14.25
   0  -4 -16  191.10   14.15
   0  -4 -16  163.44   14.85
   0  -4 -15   20.58    5.79
   4   0 -15   21.17    5.43
   0  -4 -15   18.44    4.93
   0  -4 -14  418.37   33.00
   0  -4 -14  489.51   32.70
   4   0 -14  507.84   33.89
   0  -4 -13  148.92   16.71
   0  -4 -13  190.10   29.97
   4   0 -13  165.02   25.89
   0  -4 -13  154.23   15.85
   4   0 -13  172.86   17.49
   0  -4 -12  776.57   53.33
   0  -4 -12  914.38   75.96
   4   0 -12  904.03   71.51
   4   0 -12  815.56   54.31
   0  -4 -12  881.05   53.34
   0  -4 -11  149.20   17.16
   0  -4 -11  177.37   30.00
   4   0 -11  184.86   19.06
   0  -4 -11  161.36   16.92
   4   0 -11  183.55   28.41
   0  -4 -10   10.25    9.76
   0  -4 -10   19.11    5.63
   4   0 -10   14.07    6.32
   4   0 -10   10.26    8.74
   0  -4 -10   26.82   11.88
   0  -4 -10   12.39    6.77
   0  -4 -10   22.23    6.62
   0  -4  -9  810.85   57.48
   0  -4  -9  642.07   68.44
   4   0  -9  794.83   53.57
   0  -4  -9  792.90   51.38
   0  -4  -8  113.94   23.63
   0  -4  -8  151.01   17.59
   0  -4  -8  117.74   20.63
   0  -4  -8  143.32   15.81
   0  -4  -7  619.91   53.96
   0  -4  -6  228.97   27.53
   0  -4  -5  488.48   41.74
   0  -4  -5  450.16   46.35
   0  -4  -4  441.03   47.12
   0  -4  -4  469.58   38.73
   0  -4  -3  881.15   73.73
   0  -4  -3  824.50   57.71
   4   0  -2  122.32   17.14
   0  -4  -2  141.50   17.06
   4   0  -1 1977.77  115.08
   0  -4   0  421.72   54.42
   0  -4   1  611.83   65.68
   0  -4   2  800.81   74.54
   0  -4   3  152.56   28.04
   4   0   4  694.88   43.31
   0  -4   4  751.96   49.01
   0  -4   4  853.28   67.30
   0  -4   5  145.99   25.01
   4   0   5  153.94   17.80
   0  -4   5  195.00   21.85
   0  -4   5  153.24   16.47
   0  -4   6  979.41   67.50
   4   0   6  888.91   62.56
   0  -4   6  775.00   67.53
   0  -4   6  900.89   56.05
   0  -4   7   83.22   19.39
   4   0   7  138.45   21.32
   0  -4   7  136.36   22.32
   0  -4   8 1021.43   74.75
   0  -4   8  831.50   56.13
   0  -4   8  885.68   55.82
   0  -4   8 1083.89   57.24
   0  -4   8  660.44   54.08
   4   0   8  821.50   71.00
   0  -4   8  955.51   75.73
   0  -4   9   68.27   11.71
   0  -4   9   76.14   17.38
   0  -4   9   72.80   11.48
   4   0   9   51.65   16.12
   0  -4   9   78.76   19.92
   0  -4   9   69.10   11.40
   0  -4   9   55.59   10.39
   0  -4  10 1164.54   85.74
   0  -4  10 1138.25   69.06
   0  -4  10 1082.81   69.07
   0  -4  10 1148.18   70.10
   4   0  10 1187.85   91.49
   0  -4  10 1144.51   68.42
   0  -4  11  177.01   18.19
   0  -4  11  118.94   22.88
   0  -4  11  162.03   17.31
   0  -4  11  155.24   17.74
   0  -4  11  150.36   16.84
   4   0  11  172.27   28.91
   0  -4  11  140.10   28.59
   0  -4  12  199.73   29.32
   0  -4  12  170.21   18.44
   0  -4  12  196.80   19.98
   0  -4  12  173.69   17.71
   0  -4  12  152.09   30.59
   0  -4  13  499.13   36.42
   0  -4  13  496.83   49.17
   0  -4  13  507.01   35.01
   0  -4  13  412.37   51.42
   0  -4  13  514.85   37.11
   0  -4  14   86.36   11.91
   0  -4  14   93.12   10.94
   0  -4  14   70.80   11.16
   0  -4  15   49.31    8.69
   0  -4  15   64.00    9.71
   0  -4  16   92.78   10.66
   0  -4  16   86.00   10.50
   0  -4  17   19.50    4.16
   0  -4  17   18.75    4.66
  -4   4  18   74.75    6.37
   1  -5 -17  110.51    9.58
   1  -5 -16   62.45    7.73
   1  -5 -16   65.88    8.05
   1  -5 -15  153.42   14.45
   4   1 -15  147.77   13.29
   1  -5 -15  164.01   14.04
   1  -5 -15  183.31   15.91
   1  -5 -14   21.40    5.73
   4   1 -14   17.93    5.40
   1  -5 -14   22.70    5.80
   1  -5 -14   15.06    6.02
   1  -5 -13  183.42   18.80
   1  -5 -13  149.28   15.96
   4   1 -13  159.34   15.85
   1  -5 -13  175.72   16.83
   1  -5 -12   32.58    7.62
   4   1 -12   48.65   15.17
   1  -5 -12   33.64   12.57
   4   1 -12   38.43    7.62
   1  -5 -12   44.25    8.54
   1  -5 -11  545.15   57.62
   1  -5 -11  634.01   43.59
   1  -5 -11  675.26   43.58
   4   1 -11  635.67   61.10
   1  -5 -10   26.17    6.99
   4   1 -10   26.13   11.63
   1  -5 -10   50.92   15.33
   1  -5 -10   21.79    6.48
   1  -5  -9  371.19   32.56
   1  -5  -9  584.96   35.38
   1  -5  -9  554.28   51.86
   1  -5  -9  427.45   39.08
   1  -5  -8  310.42   24.50
   1  -5  -8  265.74   28.34
   1  -5  -8  321.73   36.99
   1  -5  -7  485.52   38.34
   1  -5  -6  152.95   14.94
   1  -5  -6  142.73   14.36
   1  -5  -6  184.41   18.41
   1  -5  -5  256.25   19.75
   1  -5  -4 1630.00   89.13
   4   1  -3  537.39   42.28
   1  -5  -3  458.37   29.39
   4   1  -2 1714.89  104.52
   1  -5  -2 1680.67   90.77
   4   1  -1  327.94   29.58
   1  -5  -1  279.56   19.32
   4   1   0 3662.12  202.43
   1  -5   0 3634.95  188.80
   4   1   1   97.49   14.95
   1  -5   1   87.95    8.35
   4   1   2 1050.65   71.46
   1  -5   2 1053.70   58.39
   4   1   3  309.78   30.34
   1  -5   3  276.81   23.45
   1  -5   3  272.17   18.99
   1  -5   4 1689.82   89.80
   1  -5   4 1258.26   97.18
   1  -5   5  910.45   54.46
   1  -5   5  721.91   63.42
   4   1   6  110.07   12.92
   1  -5   6   82.95   17.75
   1  -5   6  114.92   13.83
   1  -5   6   95.21   12.86
   1  -5   6   86.65   17.88
   1  -5   7  648.18   52.83
   1  -5   7  602.88   39.26
   1  -5   7  644.29   40.40
   1  -5   7  572.74   54.63
   1  -5   7  540.18   39.83
   1  -5   8  360.73   36.80
   1  -5   8  307.51   41.06
   1  -5   8  306.01   25.62
   1  -5   9  180.18   20.17
   1  -5   9  155.72   19.24
   1  -5   9  154.61   30.82
   1  -5  10   22.17    7.79
   1  -5  10   21.86    8.08
   1  -5  10   36.67   12.21
   1  -5  10   19.30    7.67
   1  -5  10   58.49   19.89
   1  -5  10   37.13    9.92
   1  -5  11  669.29   46.28
   1  -5  11  678.85   59.41
   1  -5  11  699.77   48.92
   1  -5  11  603.39   70.12
   1  -5  11  718.80   48.25
   1  -5  12   24.33   10.04
   1  -5  12   36.30    9.51
   1  -5  12   30.86    7.92
   1  -5  12   26.04   13.47
   1  -5  13  589.58   41.21
   1  -5  13  624.49   42.77
   1  -5  13  574.74   40.29
   1  -5  14    0.78    4.49
   1  -5  14    2.45    4.99
   1  -5  14    0.69    3.59
   1  -5  15  292.86   22.24
   1  -5  15  316.87   24.39
   1  -5  15  331.46   24.40
   1  -5  16   67.58    8.76
   1  -5  16   63.10    8.30
   1  -5  17   11.23    3.11
   2  -6 -16   66.12    7.47
   2  -6 -15  166.94   14.82
   2  -6 -14   69.91    9.90
   2  -6 -14   52.33    7.85
   2  -6 -14   68.83    8.51
   2  -6 -13   34.32    6.83
   2  -6 -13   43.85    7.82
   2  -6 -13   31.10    8.18
   2  -6 -12  233.00   21.72
   2  -6 -12  272.04   25.00
   2  -6 -12  274.62   21.99
   2  -6 -11    2.54    6.10
   4   2 -11    2.90    8.51
   2  -6 -11    4.61    4.14
   2  -6 -11    3.90    3.98
   2  -6 -11   11.46    5.99
   2  -6 -10  779.33   60.08
   2  -6 -10 1218.00   59.35
   2  -6 -10  688.92   55.50
   2  -6 -10 1172.63   81.96
   2  -6  -9  602.91   44.40
   2  -6  -9  695.69   41.93
   2  -6  -9  518.28   40.54
   2  -6  -9  562.52   48.46
   2  -6  -9  652.90   58.88
   2  -6  -8 1886.38  117.96
   2  -6  -8 1862.78   98.45
   2  -6  -7   11.52    6.96
   2  -6  -7   15.57    5.74
   2  -6  -6   94.37   14.75
   2  -6  -6   83.38   11.48
   2  -6  -6  122.70   21.24
   2  -6  -5  734.09   46.87
   2  -6  -5  759.14   47.06
   2  -6  -5  843.55   64.64
   2  -6  -5  929.35   54.84
   2  -6  -5  674.65   46.19
   2  -6  -4   87.68   17.62
   2  -6  -4   73.52    9.26
   2  -6  -4   67.79    8.87
   4   2  -3  847.25   61.78
   2  -6  -3  777.45   46.95
   4   2  -2  948.22   67.42
   2  -6  -2  916.92   53.28
   4   2  -1  578.87   46.07
   2  -6  -1  525.20   33.06
   4   2   0  694.53   53.63
   2  -6   0  692.94   41.02
   4   2   1   27.58    9.26
   2  -6   1   32.14    5.30
   2  -6   2  162.83   14.73
   4   2   2  125.48   19.51
   2  -6   2  139.98   12.41
   2  -6   3 1488.33   73.72
   4   2   3 1482.90   91.31
   4   2   4 1135.61   63.78
   2  -6   4 1134.58   62.68
   2  -6   4 1270.92   64.69
   4   2   4 1136.95   79.13
   4   2   5 1837.32  116.04
   2  -6   5 1839.41  107.42
   2  -6   5 1684.41   98.95
   4   2   5 1761.40   96.90
   2  -6   5 1876.18   98.32
   2  -6   6   28.24    7.61
   2  -6   6   10.13    7.62
   2  -6   6   14.70    5.93
   4   2   6   13.18    5.47
   2  -6   7  178.13   19.39
   2  -6   7  171.63   24.42
   2  -6   7  210.45   20.53
   2  -6   7  190.22   19.56
   4   2   7  216.71   20.52
   2  -6   7  175.40   20.11
   2  -6   8   29.17   10.52
   2  -6   8   39.76    9.12
   2  -6   8   27.73    7.95
   2  -6   8   16.94    6.94
   2  -6   9   20.36    9.19
   2  -6   9   21.90    7.79
   2  -6   9   18.56    7.49
   2  -6   9   26.01    8.23
   2  -6   9   13.66    6.98
   2  -6  10  378.68   34.40
   2  -6  10  444.80   33.11
   2  -6  10  400.54   34.08
   2  -6  10  417.08   32.07
   2  -6  10  391.08   41.28
   2  -6  11  210.53   22.54
   2  -6  11  269.38   25.78
   2  -6  11  229.91   22.26
   2  -6  12  772.21   53.18
   2  -6  12  905.01   56.72
   2  -6  12  791.22   52.62
   2  -6  13  427.54   31.33
   2  -6  13  395.34   30.57
   2  -6  14  213.09   18.47
   2  -6  15   87.76   10.53
   2  -6  16   49.84    6.70
   2  -6  17  103.69    7.82
   2  -6  17   71.88    7.26
   3  -7 -15   33.00    5.29
   3  -7 -14  166.35   15.24
   3  -7 -13   14.36    4.61
   3  -7 -13   18.46    5.82
   3  -7 -12  595.96   39.57
   3  -7 -12  605.27   42.80
   3  -7 -11  140.78   16.09
   3  -7 -11  171.76   19.62
   3  -7 -10  224.90   22.39
   3  -7 -10  273.24   26.70
   3  -7  -9  798.84   54.92
   3  -7  -9  938.63   59.98
   3  -7  -9  945.87   74.84
   3  -7  -8   57.70    9.03
   3  -7  -8   46.34   15.02
   3  -7  -8   44.69   10.44
   3  -7  -8   44.03   12.28
   3  -7  -7 1035.60   58.90
   3  -7  -7  874.13   73.50
   3  -7  -6  487.38   34.20
   3  -7  -6  376.90   44.06
   3  -7  -5  120.67   13.48
   3  -7  -5  123.15   13.84
   3  -7  -4   79.79   14.50
   3  -7  -4   68.79    9.91
   3  -7  -4   67.64    9.41
   3  -7  -4   60.74    9.11
   3  -7  -3  291.85   22.06
   3  -7  -3  250.31   20.85
   3  -7  -3  260.87   21.06
   4   3  -2    5.67    5.56
   3  -7  -2   10.41    3.88
   3  -7  -2    8.36    3.33
   3  -7  -2    1.22    5.49
   3  -7  -2   10.31    4.44
   4   3  -2    3.54    4.13
   3  -7  -2    4.03    3.18
   4   3  -1 1236.56   82.03
   3  -7  -1 1102.52   64.25
   3  -7  -1 1092.66   64.87
   3  -7  -1 1194.29   65.66
   4   3  -1 1040.63   67.87
   3  -7  -1 1071.41   64.43
   4   3   0  203.22   27.14
   3  -7   0  232.10   18.79
   3  -7   0  237.42   18.33
   3  -7   0  254.80   19.14
   4   3   0  242.76   21.24
   3  -7   0  247.59   18.78
   3  -7   1  708.58   42.84
   4   3   1  734.80   58.00
   3  -7   1  696.79   43.38
   3  -7   1  688.56   42.63
   3  -7   1  778.87   43.72
   4   3   1  663.87   45.44
   3  -7   1  674.70   42.24
   3  -7   2  755.14   45.61
   4   3   2  664.25   58.40
   3  -7   2  726.22   46.14
   3  -7   2  810.75   46.22
   4   3   2  767.42   48.66
   3  -7   2  741.07   45.44
   3  -7   3   88.59   10.64
   3  -7   3  113.91   12.39
   4   3   3  107.27   19.68
   3  -7   3   98.93   13.65
   3  -7   3   90.43   11.10
   4   3   3  101.75   12.62
   3  -7   3  100.93   11.04
   3  -7   4  359.07   27.64
   4   3   4  254.58   33.70
   3  -7   4  294.75   24.07
   4   3   4  277.44   24.16
   3  -7   4  321.51   24.82
   3  -7   4  283.91   23.19
   3  -7   5   17.47    6.91
   3  -7   5    7.86    4.75
   4   3   5    2.52    5.26
   3  -7   5   13.05    5.11
   3  -7   5   21.70    5.98
   4   3   5   20.98    6.15
   3  -7   5   25.07    6.64
   4   3   6   22.54   11.35
   3  -7   6   35.14    8.54
   3  -7   6   33.85    8.12
   3  -7   6   34.64    7.82
   4   3   6   42.87    8.63
   3  -7   6   41.91    8.94
   3  -7   7  184.03   18.85
   3  -7   7  160.61   18.58
   4   3   7  186.01   19.64
   3  -7   7  161.81   16.71
   3  -7   7  166.32   18.91
   3  -7   7  179.07   20.21
   4   3   7  166.01   30.66
   3  -7   8  351.84   29.55
   3  -7   8  395.94   30.96
   3  -7   8  436.05   32.66
   4   3   8  333.35   47.39
   3  -7   9   13.96    6.02
   3  -7   9   26.93    7.69
   3  -7   9    9.74    6.50
   4   3   9    4.05    8.44
   3  -7  10 1218.52   60.43
   3  -7  10 1086.20   61.88
   4   3  10  786.92   83.16
   3  -7  11  147.04   16.35
   3  -7  11  149.90   17.42
   3  -7  11  107.77   14.58
   3  -7  12  256.20   22.41
   3  -7  12  243.27   22.62
   3  -7  13   33.34    7.17
   3  -7  13   61.67    9.18
   3  -7  14   82.86   10.21
   3  -7  14   81.12    9.95
   3  -7  15    8.02    3.73
   3  -7  16   32.58    4.66
   4   4 -15  136.25   11.67
   4  -8 -14    1.70    2.28
   4  -8 -13  245.09   19.53
   4  -8 -12   51.08    8.84
   4  -8 -11  497.06   33.99
   4  -8 -11  531.48   38.26
   4  -8 -10   14.47    5.26
   4  -8 -10   21.22    7.39
   4  -8  -9  295.27   25.49
   4  -8  -9  369.49   30.74
   4  -8  -8  885.11   58.86
   4  -8  -8 1102.37   64.73
   4  -8  -7   63.68   11.50
   4  -8  -6  268.33   23.85
   4  -8  -6  247.95   30.35
   4  -8  -5   84.99   11.92
   4  -8  -5   96.66   18.86
   4  -8  -4  367.82   27.45
   4  -8  -4  368.63   27.76
   4   4  -4  366.22   31.58
   4  -8  -4  312.64   36.22
   4  -8  -3  175.32   16.58
   4  -8  -3  172.98   17.50
   4  -8  -3  144.30   23.29
   4  -8  -3  189.93   17.10
   4   4  -3  189.26   20.19
   4  -8  -2  299.11   23.18
   4  -8  -2  298.62   24.07
   4  -8  -2  324.41   34.26
   4  -8  -2  300.48   23.13
   4   4  -2  269.37   25.69
   4   4  -1   30.92   11.11
   4  -8  -1   21.70    5.56
   4  -8  -1   16.63    5.22
   4  -8  -1   20.63    5.89
   4  -8  -1   12.60    8.43
   4  -8  -1   24.11    5.48
   4   4  -1   20.18    6.19
   4   4   0 1870.42  125.08
   4  -8   0 1931.46  107.76
   4  -8   0 1961.70  108.42
   4  -8   0 1802.33  122.12
   4  -8   0 2239.64  110.64
   4  -8   0 1967.31  107.97
   4   4   0 1836.80  111.27
   4   4   1  311.71   35.65
   4  -8   1  346.31   24.40
   4  -8   1  329.55   24.35
   4  -8   1  354.55   25.57
   4  -8   1  336.43   23.84
   4   4   1  314.60   26.19
   4   4   2  602.86   41.41
   4   4   2  593.47   54.05
   4  -8   2  586.08   39.33
   4  -8   2  603.41   39.19
   4  -8   2  676.92   40.63
   4  -8   2  555.07   37.42
   4  -8   2  575.35   38.39
   4   4   3  369.97   40.56
   4  -8   3  349.47   26.68
   4  -8   3  354.61   26.52
   4  -8   3  374.59   26.74
   4   4   3  308.08   26.80
   4  -8   3  314.63   24.59
   4  -8   4  259.15   20.59
   4  -8   4  183.00   20.08
   4   4   4  234.90   32.19
   4  -8   4  236.82   21.49
   4  -8   4  225.34   20.68
   4  -8   4  244.42   20.73
  -8   4   4  242.80   19.53
   4   4   4  234.87   21.72
   4  -8   5   42.82    8.65
   4   4   5   24.77   11.04
   4  -8   5   26.52    7.49
   4  -8   5   26.11    6.65
   4  -8   5   19.47    6.54
   4   4   5   30.38    7.24
   4   4   6  115.52   25.18
   4  -8   6  134.49   16.78
   4  -8   6  141.53   16.02
   4  -8   6  154.99   17.59
   4   4   6  136.00   16.59
   4   4   7    6.74    8.11
   4  -8   7   16.76    7.25
   4  -8   7   16.94    7.00
   4  -8   7   13.89    6.40
   4  -8   7   12.92    6.23
   4   4   8  409.80   52.99
   4  -8   8  527.08   39.06
   4  -8   8  465.05   35.66
   4  -8   8  356.16   34.69
   4  -8   8  454.98   35.71
   4  -8   9  478.06   39.88
   4  -8   9  464.04   37.93
   4  -8   9  431.39   37.88
   4  -8   9  563.99   38.53
   4  -8  10   16.11    6.71
   4  -8  10   27.44    7.52
   4  -8  10   22.10    8.61
   4  -8  11  667.94   48.43
   4  -8  11  618.30   45.85
   4  -8  11  720.30   45.64
   4  -8  12    1.62    3.38
   4  -8  12    0.72    4.14
   4  -8  12    1.84    3.99
   4  -8  13  130.13   14.85
   4  -8  13  167.80   15.10
   4  -8  14    4.05    3.22
   4  -8  14    6.19    3.19
   4  -8  15   61.55    6.02
   4  -8  15   58.94    6.37
   4  -8  15   50.48    5.88
   4   5 -14   64.06    6.68
   4   5 -13   67.58    8.69
   4   5 -12   44.39    8.21
   4   5 -11   10.52    6.07
   4   5 -10  277.55   27.68
   4   5  -9  331.37   32.19
   4   5  -8  881.96   62.81
   4   5  -7    1.43    7.07
   4   5  -6  461.48   38.96
   4   5  -5  707.79   51.68
   4   5  -4   26.69    8.95
   4   5  -3  297.25   27.47
   4   5  -2  224.80   22.51
   5  -9  -2  220.72   30.36
   4   5  -1   53.94   10.31
   5  -9  -1   30.98   12.37
   5  -9   0  306.85   24.99
   5  -9   0  304.25   22.75
   4   5   0  282.36   24.71
   4   5   0  245.27   31.65
   5  -9   1   43.13    8.89
   5  -9   1   37.78    7.52
   4   5   1   37.24    8.49
   4   5   1   24.49   10.84
   5  -9   2  245.02   22.83
   4   5   2  255.52   23.26
   5  -9   2  296.55   22.87
   4   5   2  232.21   32.17
   5  -9   3 1870.02  103.69
   4   5   3 1644.71  120.23
   4   5   3 1856.75  104.40
  -9   4   3 1812.76  102.32
   5  -9   4  236.11   20.56
   5  -9   4  301.47   24.25
   4   5   4  260.51   35.16
   4   5   4  249.27   23.00
  -9   4   4  268.52   21.68
   5  -9   5 1247.00   74.94
   5  -9   5 1403.44   78.77
   4   5   5 1129.68   95.06
   4   5   5 1357.02   77.75
  -9   4   5 1234.63   73.75
   4   5   6  108.22   22.10
   5  -9   6   81.89   11.74
   5  -9   6  102.85   14.39
   4   5   6   83.76   12.74
   5  -9   7   84.69   12.36
   5  -9   7  115.23   15.58
   5  -9   8    1.83    3.95
   5  -9   8    3.39    5.75
   5  -9   9    8.28    4.56
   5  -9   9    3.39    5.92
   5  -9  10   26.04    6.74
   5  -9  11  359.93   26.79
   5  -9  12  409.42   27.44
   5  -9  13  328.75   21.69
   5  -9  13  305.31   20.45
   5  -9  14  356.80   21.40
   3   5 -15    4.57    2.43
   5  -8 -14  207.70   15.47
   5  -8 -13   38.65    5.83
   5  -8 -13   36.67    6.52
   5  -8 -12  196.31   16.76
   5  -8 -12  181.72   17.88
   5  -8 -11  141.76   15.02
   5  -8 -11  114.87   14.99
   5  -8 -10   31.81    8.23
   5  -8 -10   45.00    9.68
   5  -8  -9  120.38   15.70
   5  -8  -9  158.47   18.61
   5  -8  -8  462.71   35.93
   5  -8  -8  513.36   38.32
   5  -8  -7  451.69   33.31
   5  -8  -7  426.98   34.37
   5  -8  -6  209.11   19.67
   5  -8  -6  214.27   20.96
   5  -8  -5  400.78   30.32
   5  -8  -5  453.64   32.22
   5  -8  -4    7.63    4.77
   3   5  -4   17.73    7.76
   5  -8  -4    6.70    4.12
   5  -8  -3 1020.91   60.00
   5  -8  -3 1030.63   60.34
   3   5  -3  915.46   62.93
   5  -8  -2  232.38   19.71
   5  -8  -2  242.75   30.37
   5  -8  -2  237.60   19.83
   3   5  -2  253.97   23.08
   3   5  -1  481.62   43.22
   5  -8  -1  450.16   32.25
   5  -8  -1  513.69   33.29
   5  -8  -1  398.58   43.14
   5  -8  -1  505.26   34.99
   5  -8  -1  499.75   32.59
   3   5  -1  472.64   35.17
   3   5   0   85.63   16.32
   5  -8   0  104.49   11.14
   5  -8   0   77.60    9.81
   5  -8   0   83.16   11.28
   5  -8   0   73.27    9.55
   3   5   0   81.30   11.27
   3   5   1  143.86   21.88
   5  -8   1  135.17   14.26
   5  -8   1  156.64   15.00
   5  -8   1  160.42   14.58
   3   5   1  143.48   15.61
   5  -8   2  217.58   17.00
   3   5   2  212.05   27.50
   5  -8   2  209.98   17.91
   5  -8   2  224.28   19.06
   5  -8   2  221.41   19.19
   5  -8   2  221.64   18.50
   3   5   2  193.45   19.12
   5  -8   3  273.82   21.95
   3   5   3  248.49   32.08
   5  -8   3  273.32   20.98
   5  -8   3  310.33   23.82
   5  -8   3  315.05   24.05
  -8   3   3  269.06   22.70
   3   5   3  285.23   23.68
   5  -8   4  548.04   38.32
   3   5   4  609.17   54.64
   5  -8   4  572.82   37.70
   5  -8   4  579.63   39.17
   5  -8   4  603.90   40.77
   5  -8   4  632.33   40.95
  -8   3   4  585.78   39.25
   3   5   4  584.75   39.82
   5  -8   5  378.99   28.05
   3   5   5  345.69   41.19
   5  -8   5  380.75   29.07
   5  -8   5  346.53   26.77
   5  -8   5  390.39   29.92
   5  -8   5  346.70   29.00
  -8   3   5  352.02   27.29
   3   5   5  372.42   28.47
   5  -8   6 1237.04   75.91
   5  -8   6 1354.45   78.32
   5  -8   6 1313.97   75.74
   3   5   6 1162.03   96.03
   5  -8   6 1299.21   78.63
  -8   3   6 1234.06   74.09
   3   5   6 1274.03   76.35
   5  -8   7   40.08    8.89
   5  -8   7   30.51    7.79
   3   5   7   63.69   18.44
  -8   3   7   44.70    8.12
   5  -8   7   51.12    9.40
   5  -8   7   52.17   10.94
   5  -8   7   32.83    8.96
   5  -8   8   71.70   12.96
   3   5   8  125.84   25.66
   5  -8   8  124.73   15.48
   5  -8   8   74.49   13.51
   5  -8   8  133.08   15.69
   5  -8   8  114.75   16.27
   5  -8   9   76.15   12.44
   5  -8   9   73.84   12.97
   5  -8   9   74.03   12.11
   5  -8   9   73.94   14.18
   5  -8  10   82.52   12.80
   5  -8  10   63.46   11.21
   5  -8  11  175.07   18.58
   5  -8  11  197.92   18.93
   5  -8  11  166.77   17.73
   5  -8  12  252.22   20.96
   5  -8  12  206.23   19.09
   5  -8  12  260.88   22.98
   5  -8  13   54.50    7.88
   5  -8  13   53.36    8.80
   5  -8  14  370.17   23.52
   5  -8  14  327.39   23.21
   5  -8  14  382.97   24.97
   5  -8  15   90.06    7.34
   5  -8  15   91.80    8.15
   5  -8  15   89.64    7.52
   5  -7 -15  386.38   23.74
   5  -7 -15  364.33   23.84
   5  -7 -14  126.05   12.06
   5  -7 -14  112.78   11.62
   5  -7 -13  463.06   32.54
  -7   2 -13  432.92   29.65
   5  -7 -13  515.18   33.58
   5  -7 -12   79.56   11.85
  -7   2 -12   66.24    9.35
   5  -7 -12   72.38   11.21
   5  -7 -11  171.49   18.96
   5  -7 -11  144.38   17.81
   5  -7 -10  143.34   19.12
   5  -7 -10  139.16   18.45
   5  -7  -9   24.93    8.52
  -7   2  -9   26.76    7.90
   5  -7  -9   21.88    7.79
   5  -7  -8   95.29   14.06
  -7   2  -8   88.37   13.13
   5  -7  -8  107.37   14.73
   5  -7  -7  619.69   45.18
   5  -7  -7  698.37   46.33
   5  -7  -6  186.11   18.74
  -7   2  -6  173.68   16.24
   5  -7  -6  206.46   19.58
   5  -7  -5 1586.30   95.14
  -7   2  -5 1697.41   93.33
   5  -7  -5 1768.41   95.94
   5  -7  -4 1396.81   78.59
   5  -7  -4 1235.60   77.75
  -7   2  -4 1362.40   76.79
   5  -7  -4 1492.94   79.43
   5  -7  -3   72.57    9.29
   5  -7  -3   73.32    9.63
   5  -7  -3   76.04    9.83
  -7   2  -3   70.39    8.64
   5  -7  -2  403.26   27.35
  -7   2  -2  399.81   26.76
   5  -7  -2  386.73   26.98
   2   5  -2  377.51   29.24
   2   5  -1  174.68   21.00
   5  -7  -1  182.40   15.63
   5  -7  -1  179.26   15.26
   5  -7  -1  136.80   21.31
   2   5  -1  154.05   15.90
   5  -7  -1  174.94   14.81
   5  -7   0  836.60   49.80
   5  -7   0  879.23   50.46
   5  -7   0  840.06   49.47
   2   5   0  784.93   51.25
   2   5   0  823.01   59.43
   2   5   1  171.07   21.07
   5  -7   1  157.98   13.70
   5  -7   1  126.38   13.35
   5  -7   1  162.48   14.40
   2   5   1  144.41   14.68
   5  -7   1  165.58   14.38
   2   5   2  268.98   29.38
   5  -7   2  293.71   21.24
   5  -7   2  271.46   21.52
   5  -7   2  300.57   22.07
   2   5   2  268.69   21.96
   5  -7   3  206.50   16.95
   5  -7   3  186.01   15.44
   2   5   3  210.04   25.69
   5  -7   3  210.40   17.70
   5  -7   3  187.82   17.27
  -7   2   3  202.04   17.73
   2   5   3  198.29   17.57
   5  -7   4 1779.22   99.95
   5  -7   4 2038.80  103.07
   2   5   4 1727.82  116.85
   5  -7   4 1821.32  102.43
   5  -7   4 1837.90  102.91
  -7   2   4 1818.01  102.25
   2   5   4 1751.67  101.68
   2   5   5   78.86   10.61
   5  -7   5   79.53   11.52
   2   5   5   77.78   16.97
   5  -7   5   76.72   11.20
   5  -7   5   86.55   11.97
  -7   2   5   93.34   11.49
   5  -7   5   87.03   10.62
   5  -7   5   94.36   12.30
   2   5   6  577.80   39.40
   5  -7   6  631.06   41.91
   5  -7   6  518.03   40.94
  -7   2   6  598.78   39.13
   5  -7   6  568.14   38.78
   5  -7   6  586.71   41.50
   2   5   6  506.41   53.67
   5  -7   7 1867.98   93.43
  -7   2   7 1851.72   88.86
   5  -7   7 1537.44   91.49
   2   5   7 1684.87  115.07
   5  -7   8  180.47   20.71
   5  -7   8  159.73   19.96
  -7   2   8  214.74   18.76
   5  -7   8  121.60   17.78
  -7   2   8  140.51   26.08
   5  -7   9  408.41   33.74
  -7   2   9  323.96   42.23
   5  -7   9  372.04   32.09
   5  -7   9  323.56   32.05
   5  -7  10    1.16    5.91
   5  -7  10    1.40    4.45
   5  -7  10    2.24    5.20
   5  -7  11   34.16    9.74
   5  -7  11   57.18   10.59
   5  -7  12    3.19    4.78
   5  -7  13   71.82   10.98
   5  -7  14   -0.57    2.89
   5  -7  14   -0.60    2.80
   5  -7  14    1.30    3.66
   5  -7  14    5.52    3.38
   5  -7  15  597.95   36.46
   5  -7  15  563.79   34.77
   5  -7  15  630.17   35.92
   5  -7  15  600.68   35.58
   5  -7  16    7.38    2.09
   5  -7  16    8.06    2.43
  -6   1 -16   60.22    6.15
   5  -6 -16   76.27    7.43
   5  -6 -15  423.36   27.04
  -6   1 -15  375.38   25.18
   5  -6 -15  377.07   25.72
   5  -6 -14  120.13   13.54
  -6   1 -14  114.52   12.02
   5  -6 -14  119.52   12.68
   5  -6 -13   10.05    6.31
  -6   1 -13    9.33    4.65
   5  -6 -13    4.85    4.36
   5  -6 -12  499.26   38.30
   5  -6 -12  544.68   40.26
   5  -6 -11  117.03   17.24
   5  -6 -11  112.41   16.11
  -6   1 -11  170.85   27.65
  -6   1 -11  144.28   17.16
   5  -6 -10  377.35   36.54
   5  -6 -10  372.78   36.24
   5  -6  -9  104.54   15.89
   5  -6  -9   93.16   14.74
  -6   1  -9  104.39   23.05
  -6   1  -9   88.76   14.28
   5  -6  -8  284.36   26.39
   5  -6  -8  288.87   25.78
  -6   1  -8  209.18   33.52
  -6   1  -8  280.15   25.15
   5  -6  -7  272.97   24.63
   5  -6  -7  294.02   23.85
  -6   1  -7  238.32   21.08
   5  -6  -6  166.56   17.67
   5  -6  -6  209.30   18.36
  -6   1  -6  169.94   25.13
  -6   1  -6  185.06   16.74
   5  -6  -5  116.18   13.22
  -6   1  -5  123.98   12.29
   5  -6  -5  118.86   12.58
  -6   1  -5   85.89   15.78
  -6   1  -4  244.78   25.24
  -6   1  -4  257.89   19.71
   5  -6  -4  278.84   20.55
   5  -6  -4  260.61   27.11
   5  -6  -4  268.69   20.22
   5  -6  -4  238.35   20.52
   5  -6  -3 1453.29   82.26
   5  -6  -3 1591.20   95.11
   5  -6  -2  918.86   53.67
   5  -6  -2  980.67   67.07
   1   5  -1  803.75   51.75
   5  -6  -1  743.96   44.57
   5  -6  -1  782.00   58.64
   1   5   0   10.41    4.53
   5  -6   0    1.72    7.47
   5  -6   0   12.30    3.71
   5  -6   0    8.21    2.88
  -6   1   1   73.11   11.21
   1   5   1   75.09   12.07
   5  -6   1   81.75    9.23
   5  -6   1   67.78    7.88
   1   5   2    6.21    4.48
   5  -6   2    5.34    2.68
   5  -6   2    7.49    7.41
   5  -6   2    5.76    3.32
  -6   1   3  539.01   35.61
   1   5   3  496.98   42.67
   5  -6   3  561.33   36.07
   5  -6   3  632.40   45.97
   5  -6   4    6.72    3.68
  -6   1   4    7.05    4.08
   5  -6   4   11.51    7.98
   5  -6   4    6.33    3.97
   1   5   4    6.43    5.79
   5  -6   5 1776.38  101.19
  -6   1   5 1755.25   99.02
   5  -6   5 1774.93  100.92
   5  -6   5 1722.05  105.85
   1   5   5 1720.05   98.07
   5  -6   5 1921.06  101.65
   5  -6   6   71.98   12.39
   5  -6   6   91.56   12.95
   5  -6   6  102.14   13.51
  -6   1   6  107.49   12.36
   5  -6   7  880.58   49.69
  -6   1   7  853.69   44.49
   5  -6   8   78.83   13.86
  -6   1   8  107.36   13.63
   5  -6   8  118.53   16.46
   5  -6   8   89.66   13.99
  -6   1   9   32.00   14.45
  -6   1   9   24.09    7.91
   5  -6   9   31.43    9.43
   5  -6   9   38.84    9.72
   5  -6   9   34.30    9.67
   5  -6  10  559.87   38.64
  -6   1  10  490.70   53.64
  -6   1  10  339.49   31.94
   5  -6  10  553.74   37.61
   5  -6  10  296.90   34.46
  -6   1  11   79.42   18.95
   5  -6  11   81.25   15.47
   5  -6  12  481.01   39.77
   5  -6  13  435.61   31.62
   5  -6  13  392.15   33.69
   5  -6  14  122.85   13.08
   5  -6  14  137.87   15.87
   5  -6  15  137.19   12.37
   5  -6  15  110.40   12.63
   5  -6  16  223.14   16.56
  -6   1  16  231.63   16.02
   5  -6  16  229.15   16.27
   5  -6  16  251.79   16.69
   5  -6  17   25.35    3.31
  -5   0 -17    0.50    1.37
   5  -5 -17    0.30    2.41
  -5   0 -16  414.14   25.54
   5  -5 -16  362.62   24.10
   5  -5 -15    9.36    3.72
  -5   0 -15   11.22    4.51
   5  -5 -14   85.67   11.06
  -5   0 -14   83.54   11.29
   5  -5 -13  167.29   17.61
  -5   0 -13  187.02   18.62
  -5   0 -12  101.67   20.31
  -5   0 -12  145.39   26.67
   5  -5 -12  111.86   14.84
  -5   0 -11  246.01   24.56
  -5   0 -11  242.74   35.19
   5  -5 -11  203.84   22.20
  -5   0 -10  313.37   30.42
   5  -5 -10  285.88   28.77
  -5   0  -9  182.46   20.34
   5  -5  -9  141.03   19.45
   5  -5  -9  134.82   17.94
  -5   0  -9  141.87   27.35
  -5   0  -8 1624.81   86.67
   5  -5  -8 1376.11   86.18
   5  -5  -8 1479.20   84.33
  -5   0  -7  569.94   37.91
   5  -5  -7  560.13   40.37
   5  -5  -7  631.87   39.32
  -5   0  -6   83.76   17.05
  -5   0  -6   63.59    9.07
   5  -5  -6   89.96   12.70
   5  -5  -6   66.70    9.23
   5  -5  -6   74.58   10.99
   5  -5  -5  126.10   12.33
  -5   0  -5  155.88   20.89
   5  -5  -5  145.22   16.74
   5  -5  -5  108.74   12.76
  -5   0  -4  351.10   32.10
   5  -5  -4  354.43   30.76
   5  -5  -4  367.17   24.60
  -5   0  -3 1401.19   85.72
   5  -5  -3 1628.07   90.61
   5  -5  -3 1400.32   78.56
  -5   0  -2  179.07   17.27
   5  -5  -2  190.51   21.90
   5  -5  -2  186.08   14.18
   5  -5  -1 1143.55   63.84
   5  -5  -1 1112.00   74.55
   5  -5  -1 1110.26   61.68
   5  -5   0   29.03    4.35
   0   5   0   22.56    5.34
   5  -5   0   26.78    9.52
   5  -5   0   21.43    4.65
  -5   0   1  694.68   45.77
   5  -5   1  647.22   38.13
   0   5   1  661.17   43.35
   5  -5   1  673.19   40.51
  -5   0   2  105.73   13.02
   5  -5   2  111.69    9.81
   0   5   2  121.47   14.25
   5  -5   2  112.55   11.35
   5  -5   2  127.76   17.70
  -5   0   3  270.66   20.04
   5  -5   3  284.20   26.84
   5  -5   3  249.21   20.24
  -5   0   4 1589.37   88.43
   5  -5   4 1543.06   89.52
   5  -5   4 1689.00   96.43
  -5   0   5   14.94    4.76
   5  -5   5    8.61    4.03
   5  -5   5   16.31    6.50
   5  -5   5   14.58    5.00
  -5   0   6  922.31   54.85
   5  -5   6  853.90   57.47
   5  -5   6  918.64   58.34
  -5   0   7  372.85   26.00
   5  -5   7  335.73   26.44
   5  -5   8   28.83    8.68
  -5   0   8   40.76    9.12
  -5   0   9    3.29    6.84
   5  -5   9    9.87    6.11
  -5   0   9    9.09    6.07
  -5   0  10  334.62   47.96
  -5   0  10  320.57   30.65
  -5   0  11  442.94   50.94
  -5   0  11  400.52   32.24
  -5   0  12  863.55   71.68
  -5   0  12  757.96   49.59
   5  -5  13  109.19   13.86
   5  -5  14  406.08   29.73
   5  -5  15   69.12   10.56
   5  -5  15   61.86    8.72
   5  -5  16    9.71    3.79
  -5   0  16   11.42    3.70
   5  -5  16   11.19    3.73
  -5   0  17   47.44    5.20
   5  -5  17   45.65    5.10
   5  -4 -17   21.75    4.18
  -4  -1 -17   22.72    4.29
  -4  -1 -16   54.31    7.71
  -4  -1 -16   47.92    5.71
   5  -4 -16   51.28    7.61
   5  -4 -16   41.79    5.99
  -4  -1 -15  307.11   23.69
   5  -4 -15  302.36   23.59
   5  -4 -15  273.69   21.24
  -4  -1 -14    0.83    4.36
   5  -4 -14   -0.90    5.71
   5  -4 -14    2.07    3.09
   5  -4 -13  650.48   45.33
  -4  -1 -13  599.48   43.65
  -4  -1 -12   41.47   15.16
  -4  -1 -12   19.28   10.57
   5  -4 -12   41.46   10.77
  -4  -1 -11  630.58   47.53
   5  -4 -11  621.60   48.25
  -4  -1 -11  753.63   67.79
  -4  -1 -10   15.74    7.94
   5  -4 -10   21.25    9.05
  -4  -1 -10   42.73   15.13
  -4  -1  -9  207.72   22.10
  -4  -1  -9  191.46   31.54
   5  -4  -9  177.44   21.57
  -4  -1  -8  328.52   27.00
   5  -4  -8  309.83   33.92
   5  -4  -8  312.25   27.98
  -4  -1  -7  584.43   38.33
  -4  -1  -7  496.94   52.35
   5  -4  -7  617.99   50.41
   5  -4  -7  565.08   40.53
   5  -4  -6  100.39   12.79
   5  -4  -6  103.35   18.07
  -4  -1  -6   99.56   19.98
  -4  -1  -6   95.04   10.82
   5  -4  -6   82.24   12.03
   5  -4  -6  118.32   11.70
  -4  -1  -5  850.69   60.91
   5  -4  -5  814.24   46.99
   5  -4  -5  771.96   51.59
   5  -4  -5  750.20   58.61
  -4  -1  -4 1734.95   98.07
   5  -4  -4 1502.83   84.70
   5  -4  -4 1476.16   97.49
   5  -4  -4 1717.84   93.90
  -4  -1  -3  267.88   24.46
   5  -4  -3  194.43   23.36
  -4  -1  -2 1147.90   65.64
   5  -4  -2 1234.69   70.81
   5  -4  -1   79.57   14.33
   5  -4  -1   98.74    9.87
   5  -4  -1   98.24   10.53
  -4  -1   0 3600.74  183.88
   5  -4   0 3541.85  175.66
   5  -4   1  290.28   20.62
  -4  -1   1  283.71   24.78
  -4  -1   2 1683.97   94.98
   5  -4   2 1587.64   89.90
   5  -4   2 1571.70   91.64
   5  -4   2 1855.96  100.71
   5  -4   3  449.52   31.13
  -4  -1   3  419.81   28.59
   5  -4   3  452.71   29.97
   5  -4   3  477.05   35.93
   5  -4   4 1454.18   87.38
  -4  -1   4 1508.66   84.51
   5  -4   4 1705.09   91.85
   5  -4   4 1499.20   85.82
   5  -4   5  256.54   23.54
  -4  -1   5  261.13   20.43
   5  -4   5  284.41   24.25
   5  -4   6  128.05   16.69
   5  -4   6  123.62   14.83
  -4  -1   6  140.20   13.90
   5  -4   7  504.53   54.45
  -4  -1   7  532.14   36.41
   5  -4   8  394.29   48.58
  -4  -1   8  314.95   26.94
   5  -4   9  564.49   66.16
  -4  -1   9  468.83   38.43
   5  -4  10   32.79   18.70
  -4  -1  10   31.53    9.86
  -4  -1  10   30.97    8.46
  -4  -1  10   25.72   14.70
   5  -4  11  695.79   77.38
  -4  -1  11  754.20   70.06
  -4  -1  11  629.33   42.41
  -4  -1  11  670.63   46.56
  -4  -1  12   58.49   18.39
  -4  -1  12   44.86    9.18
   5  -4  12   56.42   20.31
  -4  -1  13  187.94   17.79
  -4  -1  14   31.07    6.37
  -4  -1  15  199.69   15.77
   5  -4  15  193.58   16.97
  -4  -1  15  178.03   16.29
  -4  -1  16   62.06    7.93
   5  -4  16   63.44    8.01
   5  -4  16   56.00    8.69
  -4  -1  17  130.17   11.22
   5  -4  17  143.32   12.45
   5  -4  17  150.90   11.50
  -3  -2 -18    4.04    1.65
   5  -3 -18    2.72    1.51
   5  -3 -17   61.99    6.88
  -3  -2 -17   68.91    7.47
  -3  -2 -16   23.81    5.40
   5  -3 -16   17.85    4.00
   5  -3 -16   22.15    5.29
  -3  -2 -15  529.80   34.40
   5  -3 -15  414.35   30.25
   5  -3 -15  534.72   34.25
  -3  -2 -15  470.94   29.78
   5  -3 -14  229.95   21.89
  -3  -2 -14  240.76   21.86
   5  -3 -13  118.06   16.10
  -3  -2 -13  110.81   14.52
  -3  -2 -12  639.22   65.56
   5  -3 -12  765.86   52.71
  -3  -2 -12  778.80   70.87
   5  -3 -11    4.23    6.71
   5  -3 -11    6.51    6.81
  -3  -2 -11    2.34    6.28
  -3  -2 -11    3.11    7.47
   5  -3 -10  810.43   61.16
   5  -3 -10  564.66   48.86
  -3  -2 -10  667.54   49.47
  -3  -2 -10  877.11   72.99
   5  -3  -9   20.47    8.89
   5  -3  -9   20.38    7.53
  -3  -2  -9   12.98    6.84
  -3  -2  -9   15.24    9.71
   5  -3  -8  148.36   17.30
   5  -3  -8  139.85   21.71
   5  -3  -7   62.97   10.57
   5  -3  -7   35.91   11.80
  -3  -2  -7   41.18   14.14
  -3  -2  -7   42.67   13.02
   5  -3  -6  635.85   52.49
  -3  -2  -6  620.86   57.29
  -3  -2  -6  630.38   53.99
   5  -3  -5   22.63    8.68
  -3  -2  -5   22.68    8.76
  -3  -2  -4  939.39   64.05
  -3  -2  -3 1502.15   90.43
  -3  -2  -2 1326.33   83.70
  -3  -2  -1 1564.94   94.02
   5  -3   0    9.45    4.29
  -3  -2   0   14.11    5.30
   5  -3   1  276.53   23.92
  -3  -2   1  322.32   26.23
   5  -3   2  126.32   11.43
   5  -3   2  110.38   13.66
  -3  -2   2  119.95   11.04
   5  -3   3 1701.86   92.07
   5  -3   3 1626.11   97.10
   5  -3   4  289.32   25.90
  -3  -2   4  262.27   20.04
  -3  -2   5 1031.39   60.39
  -3  -2   5 1080.26   63.63
   5  -3   5  979.57   68.27
  -3  -2   6  236.31   19.79
   5  -3   6  219.47   20.41
   5  -3   7 1065.94   80.47
  -3  -2   7  901.80   73.72
  -3  -2   7  896.81   57.48
   5  -3   8 1340.80  102.93
  -3  -2   8 1234.74   76.65
  -3  -2   9   21.24    7.42
   5  -3   9   19.36   14.73
  -3  -2   9   23.25   14.40
  -3  -2  10 1136.22   69.86
  -3  -2  10 1075.77   68.66
  -3  -2  10 1083.36   94.07
   5  -3  10  981.73   97.59
  -3  -2  11   12.80   12.77
  -3  -2  11   31.07    8.77
   5  -3  11   29.61   16.08
  -3  -2  11   13.24    7.09
   5  -3  12  234.28   39.76
  -3  -2  12  208.16   20.79
  -3  -2  12  226.99   20.10
  -3  -2  12  246.64   35.73
  -3  -2  13  271.43   23.32
  -3  -2  13  271.20   21.73
  -3  -2  14   26.71    6.93
  -3  -2  15  188.27   16.43
  -3  -2  15  177.53   16.38
   5  -3  16  533.56   32.61
  -3  -2  16  470.40   31.05
  -3  -2  16  509.77   32.21
   5  -3  17    3.33    2.62
  -3  -2  17    8.32    3.45
   5  -3  17    4.95    2.52
  -3  -2  18  386.10   22.77
   5  -2 -17    2.47    2.57
   5  -2 -16  380.75   24.28
  -2  -3 -16  303.25   22.01
   5  -2 -15  137.39   14.10
  -2  -3 -15  118.31   11.14
   5  -2 -14  373.64   27.91
  -2  -3 -14  309.16   23.17
   5  -2 -13   55.03   10.96
  -2  -3 -12  218.56   33.52
   5  -2 -12  200.21   21.40
   5  -2 -12  146.12   24.18
  -2  -3 -12  212.33   26.87
   5  -2 -11 1102.04   71.55
   5  -2 -11 1057.04   81.38
  -2  -3 -11 1104.83   82.79
   5  -2 -10  116.34   20.86
   5  -2 -10   67.72   13.45
  -2  -3 -10  105.05   15.13
  -2  -3 -10  141.25   24.42
  -2  -3 -10  134.07   26.99
   5  -2  -9  643.07   51.92
   5  -2  -9  456.53   37.33
  -2  -3  -9  383.06   35.05
  -2  -3  -9  431.69   51.84
  -2  -3  -9  592.35   53.46
   5  -2  -8  484.67   47.55
   5  -2  -8  561.76   39.05
  -2  -3  -8  497.64   37.75
  -2  -3  -8  460.91   51.92
  -2  -3  -8  484.84   50.30
   5  -2  -7  517.59   34.37
  -2  -3  -7  396.50   42.57
  -2  -3  -7  475.45   48.09
  -2  -3  -7  483.67   33.83
  -2  -3  -6   22.06    9.67
  -2  -3  -6   30.23   13.12
  -2  -3  -6   13.19    8.80
  -2  -3  -5  311.83   38.05
  -2  -3  -5  296.21   31.39
  -2  -3  -5  274.64   31.90
  -2  -3  -4   17.91    7.26
  -2  -3  -4   17.04   11.34
  -2  -3  -3 2459.89  165.21
  -2  -3  -2  378.42   33.28
   5  -2  -1  240.66   23.24
  -2  -3  -1  251.25   24.06
   5  -2   0  321.28   28.78
  -2  -3   0  408.47   31.16
   5  -2   1  154.30   17.35
   5  -2   2  324.06   28.12
  -2  -3   3  553.97   34.52
   5  -2   3  549.31   41.75
   5  -2   3  521.52   33.95
  -2  -3   4 1191.02   68.69
   5  -2   4 1139.58   77.12
  -2  -3   5  588.43   42.63
   5  -2   5  620.03   48.35
  -2  -3   5  664.55   61.98
  -2  -3   6  902.16   63.12
   5  -2   6  988.60   70.05
  -2  -3   6  984.45   77.40
  -2  -3   6  896.23   57.09
  -2  -3   7  330.21   33.21
   5  -2   7  358.17   38.43
  -2  -3   7  243.01   32.94
  -2  -3   7  273.45   24.96
  -2  -3   8   79.92   12.91
  -2  -3   8   99.18   12.47
  -2  -3   8   90.91   18.82
   5  -2   8  117.47   24.09
  -2  -3   9   11.17    6.37
  -2  -3   9   13.34   10.60
  -2  -3   9   14.41    5.11
  -2  -3   9   15.87    8.42
   5  -2   9   10.85    9.73
  -2  -3  10   31.31    8.45
  -2  -3  10   25.95    8.66
  -2  -3  10   46.76   16.80
  -2  -3  10   30.48   11.14
   5  -2  10   51.42   18.45
  -2  -3  11  500.74   36.84
  -2  -3  11  523.60   54.89
  -2  -3  11  524.44   37.73
  -2  -3  11  395.73   47.64
   5  -2  11  475.38   58.75
   5  -2  12  286.08   41.02
  -2  -3  12  196.39   20.83
  -2  -3  12  241.84   21.79
  -2  -3  12  256.25   35.42
  -2  -3  12  234.71   21.64
  -2  -3  13   16.91    5.88
  -2  -3  13   10.02    5.62
  -2  -3  13   18.01    6.84
  -2  -3  14  938.74   55.71
  -2  -3  14  816.96   53.63
  -2  -3  15   28.15    5.67
  -2  -3  15   38.29    7.49
  -2  -3  15   37.87    7.25
  -2  -3  16  129.84   12.81
  -2  -3  16  140.95   12.93
   5  -2  17  103.43   10.31
   5  -2  17  111.44    9.81
  -2  -3  17  107.81   10.00
   5  -1 -17  124.17    9.89
  -1  -4 -17  145.86   11.28
  -1  -4 -16    9.60    3.15
   5  -1 -16    9.94    3.72
  -1  -4 -16    3.01    2.97
   5  -1 -15   84.56   10.37
  -1  -4 -15   84.78   10.18
  -1  -4 -15   89.15   10.69
  -1  -4 -14    2.10    2.95
   5  -1 -14    2.26    4.24
  -1  -4 -14    0.73    3.48
  -1  -4 -14    9.70    4.57
  -1  -4 -13  356.29   28.70
   5  -1 -13  384.71   29.66
  -1  -4 -13  374.70   27.00
  -1  -4 -12    3.05    5.18
  -1  -4 -12    1.76    4.49
   5  -1 -12   -1.01    5.56
  -1  -4 -12    5.41    3.80
  -1  -4 -11 1183.53   93.70
  -1  -4 -11 1114.16   79.84
   5  -1 -11 1034.52   68.60
  -1  -4 -10   81.84   14.69
  -1  -4 -10   92.86   19.00
   5  -1 -10   73.38   13.71
   5  -1  -9  495.00   50.50
  -1  -4  -9  528.79   40.98
  -1  -4  -9  505.60   37.72
   5  -1  -9  467.37   37.68
  -1  -4  -9  540.54   50.98
  -1  -4  -8 1054.78   76.11
   5  -1  -8 1310.78   77.08
  -1  -4  -8 1097.54   90.73
  -1  -4  -7   76.65   17.99
  -1  -4  -7   83.80   11.25
  -1  -4  -7   44.02   14.01
  -1  -4  -7   36.60    8.48
   5  -1  -7   47.73    8.34
  -1  -4  -6  452.60   29.81
  -1  -4  -6  478.93   45.38
  -1  -4  -6  406.23   43.19
  -1  -4  -6  393.43   45.48
  -1  -4  -5  236.46   17.61
  -1  -4  -5  253.80   34.78
  -1  -4  -5  223.11   28.39
  -1  -4  -4  862.95   50.45
  -1  -4  -4  994.29   67.43
  -1  -4  -4  961.17   79.81
  -1  -4  -3  886.00   78.12
  -1  -4  -3  768.07   57.82
  -1  -4  -2  409.41   53.37
   5  -1  -2  387.87   34.38
   5  -1  -1  203.16   22.34
  -1  -4   0 1580.69  149.53
   5  -1   0 2348.33  126.01
  -1  -4   1 1253.41  106.00
   5  -1   1 1092.17   72.59
  -1  -4   2  512.61   62.09
   5  -1   2  448.37   37.99
  -1  -4   3  493.58   55.60
   5  -1   3  401.57   36.93
  -1  -4   3  443.08   30.80
   5  -1   4  738.91   57.08
  -1  -4   4  793.49   48.61
   5  -1   4  694.30   44.26
  -1  -4   5    8.87    5.11
  -1  -4   5    2.88    6.00
  -1  -4   6  230.60   24.22
  -1  -4   6  339.16   32.09
   5  -1   6  338.31   31.78
  -1  -4   6  315.62   39.31
  -1  -4   7   20.80    6.40
  -1  -4   7   17.35    5.96
  -1  -4   7    7.29    7.76
  -1  -4   7   27.86    9.88
   5  -1   7   24.00    9.93
  -1  -4   8  529.11   59.51
  -1  -4   8  614.10   43.71
  -1  -4   8  741.79   46.32
  -1  -4   8  583.94   43.91
  -1  -4   8  644.09   58.54
   5  -1   8  754.47   63.17
  -1  -4   9  373.25   33.49
  -1  -4   9  434.63   49.24
  -1  -4   9  410.26   33.32
  -1  -4   9  449.90   33.71
  -1  -4   9  488.39   34.34
  -1  -4   9  348.56   45.24
   5  -1   9  354.50   46.60
  -1  -4  10   14.03    8.21
  -1  -4  10    5.37    9.12
  -1  -4  10   11.23    7.30
  -1  -4  10   11.94    7.09
  -1  -4  10   14.50    6.06
  -1  -4  10    6.37    7.66
   5  -1  10   27.44   11.65
  -1  -4  11  773.00   66.47
  -1  -4  11  774.40   50.55
  -1  -4  11  723.55   48.36
  -1  -4  11  737.20   50.03
  -1  -4  11  696.16   48.64
  -1  -4  11  701.64   68.66
  -1  -4  12    9.73    8.26
  -1  -4  12    7.85    4.53
  -1  -4  12    5.37    5.69
  -1  -4  12    6.55    6.26
  -1  -4  12    5.42    5.64
  -1  -4  13  201.76   19.56
  -1  -4  13  183.35   18.54
  -1  -4  14    0.76    4.73
  -1  -4  14    1.55    4.46
  -1  -4  15  122.16   13.07
  -1  -4  15  126.89   13.56
  -1  -4  15  130.52   13.06
  -1  -4  16    4.99    3.44
  -1  -4  16    0.82    2.21
   5  -1  16    2.73    2.86
  -1  -4  16    2.09    2.94
  -1  -4  17  103.57    8.45
  -1  -4  17  138.54   10.84
   0  -5 -16    8.14    2.97
   0  -5 -16    8.05    3.23
   0  -5 -15   68.18    8.73
   0  -5 -15   55.36    7.78
   5   0 -15   65.36    7.68
   0  -5 -14  416.27   28.60
   0  -5 -14  343.77   26.39
   5   0 -14  354.92   25.94
   5   0 -13   95.19   11.97
   0  -5 -13   95.55   13.26
   0  -5 -13  107.38   12.64
   5   0 -12  762.17   65.05
   0  -5 -12  781.01   48.65
   5   0 -12  693.07   48.18
   0  -5 -12  708.93   64.77
   0  -5 -12  770.70   51.07
   5   0 -11  360.84   43.12
   0  -5 -11  382.71   29.03
   5   0 -11  346.03   29.42
   0  -5 -11  330.16   41.39
   0  -5 -11  389.15   31.70
   5   0 -10  401.53   45.28
   0  -5 -10  449.38   29.73
   0  -5 -10  356.33   33.83
   0  -5 -10  483.29   47.72
   0  -5 -10  266.38   28.26
   5   0 -10  264.56   26.95
   0  -5  -9   19.27    8.52
   0  -5  -9   -2.61    8.28
   0  -5  -9   10.22    6.55
   0  -5  -9    7.15    4.90
   0  -5  -8   36.87    7.95
   0  -5  -8   43.80   10.40
   0  -5  -8   25.51   10.51
   0  -5  -8   19.66    6.60
   0  -5  -7  301.08   25.87
   0  -5  -7  354.63   26.19
   0  -5  -7  357.44   29.17
   0  -5  -6  761.08   65.92
   0  -5  -6  897.72   51.82
   0  -5  -6  809.87   51.04
   0  -5  -5   22.08    8.70
   0  -5  -5   10.49    3.62
   0  -5  -4 1608.00   88.38
   0  -5  -4 1670.48  122.68
   0  -5  -3  253.80   18.22
   0  -5  -3  260.13   41.29
   0  -5  -2  100.24   26.53
   0  -5  -2  117.96   10.29
   5   0  -2  106.30   16.92
   0  -5  -1  643.12   37.58
   0  -5   0   28.95    4.36
   0  -5   0    9.85   13.28
   0  -5   1 1070.89   59.58
   0  -5   1 1280.45  111.04
   0  -5   2  133.11   17.04
   0  -5   2  181.26   13.23
   0  -5   2  199.43   37.66
   0  -5   3 1672.05  118.68
   0  -5   3 1254.25   79.45
   0  -5   4  357.77   47.81
   0  -5   4  342.22   28.61
   5   0   5  128.13   13.83
   0  -5   5  133.90   16.21
   0  -5   5  140.55   14.97
   0  -5   5  152.76   14.70
   5   0   5  140.96   22.37
   0  -5   6   64.95   16.68
   0  -5   6   66.30   10.39
   0  -5   6   66.15    9.44
   0  -5   6   78.62   12.00
   5   0   6   65.02    9.94
   0  -5   7  560.06   38.83
   0  -5   7  427.59   49.07
   0  -5   7  542.33   37.42
   0  -5   7  486.41   37.95
   0  -5   8 1448.86   97.90
   0  -5   8 1631.69  105.17
   0  -5   8 1322.51   78.24
   0  -5   9  162.60   26.23
   0  -5   9  161.36   19.04
   0  -5   9  143.54   19.01
   0  -5   9  147.18   29.54
   0  -5   9  140.09   18.10
   0  -5  10  449.44   35.13
   0  -5  10  533.59   49.37
   0  -5  10  512.87   37.01
   0  -5  10  462.89   36.81
   0  -5  10  490.64   36.89
   0  -5  11  224.02   22.08
   0  -5  11  232.15   23.34
   0  -5  11  206.80   34.65
   0  -5  11  259.96   23.36
   0  -5  11  264.34   32.97
   0  -5  11  223.40   22.33
   0  -5  12  120.66   16.13
   0  -5  12  114.82   14.61
   0  -5  12  116.27   14.14
   0  -5  13  207.92   19.93
   0  -5  13  209.53   20.65
   0  -5  14   88.12   12.03
   0  -5  14   79.77   11.12
   5   0  15    9.67    3.89
   0  -5  15    9.22    4.74
   0  -5  15    9.55    4.26
   0  -5  15    8.00    4.33
   0  -5  16  436.68   28.70
   0  -5  16  443.02   27.91
   0  -5  17   -0.46    1.40
   0  -5  17   -0.71    1.67
   1  -6 -16  220.55   15.51
   1  -6 -15   15.57    4.08
   1  -6 -15    9.08    3.30
   1  -6 -14  383.95   27.64
   1  -6 -14  371.11   25.63
   1  -6 -13  134.23   15.32
   1  -6 -13  137.47   13.56
   1  -6 -12  112.91   14.46
   1  -6 -12   85.97   11.21
   1  -6 -11  776.79   48.33
   5   1 -11  849.11   71.48
   1  -6 -11  625.15   62.33
   1  -6 -11  745.88   52.15
   1  -6 -10   16.57    6.46
   1  -6 -10   35.36   12.91
   1  -6 -10   28.62    6.92
   1  -6  -9  189.54   24.79
   1  -6  -9  215.96   30.42
   1  -6  -9  171.63   20.27
   1  -6  -9  193.90   18.15
   1  -6  -8  495.29   50.07
   1  -6  -8  429.67   39.24
   1  -6  -8  480.41   35.94
   1  -6  -8  473.11   33.51
   1  -6  -7   81.58   14.63
   1  -6  -7   82.43   18.89
   1  -6  -7   89.86   12.52
   1  -6  -6  622.92   40.22
   1  -6  -6  547.16   39.53
   1  -6  -6  650.87   45.27
   1  -6  -5  147.28   14.56
   1  -6  -5  159.23   15.28
   1  -6  -4   30.75    6.00
   1  -6  -4   33.96    6.28
   1  -6  -4   34.34    6.36
   1  -6  -3 1492.54   82.81
   1  -6  -3 1480.66   82.44
   1  -6  -2 1434.28   79.26
   5   1  -2 1431.61   95.82
   1  -6  -1  812.46   47.50
   5   1  -1  833.28   62.87
   1  -6   0  121.73   11.08
   5   1   0  114.48   19.04
   1  -6   1   22.57    4.58
   5   1   1   19.63    8.63
   1  -6   2   41.49    8.76
   1  -6   2   61.92    7.26
   5   1   2   42.46   12.21
   5   1   3  318.67   34.53
   5   1   3  304.07   24.05
   1  -6   3  297.29   25.88
   1  -6   3  304.83   32.89
   1  -6   4  155.52   14.87
   1  -6   4  174.85   18.11
   5   1   4  119.85   21.38
   1  -6   4  165.09   24.05
   5   1   5 1118.83   90.99
   1  -6   5 1370.49   79.57
   1  -6   5 1318.85   77.85
   1  -6   5 1293.48   76.60
   1  -6   5 1322.01   91.38
   1  -6   6 1186.36   70.26
   1  -6   6 1064.06   66.90
   1  -6   6 1151.85   68.94
   1  -6   6 1074.36   69.34
   1  -6   6 1147.61   81.84
   1  -6   7  194.74   19.62
   1  -6   7  187.04   18.94
   1  -6   7  156.45   18.82
   1  -6   7  181.54   19.40
   1  -6   7  182.07   26.03
   1  -6   7  128.58   18.20
   1  -6   8  994.49   58.37
   1  -6   8  925.73   58.34
   1  -6   8 1006.61   70.67
   1  -6   8  846.30   57.51
   1  -6   9  245.97   22.66
   1  -6   9  194.76   22.49
   1  -6   9  231.70   29.47
   1  -6   9  182.25   21.67
   1  -6  10  190.55   20.85
   1  -6  10  202.60   27.03
   1  -6  10  164.11   20.62
   1  -6  11  240.84   29.52
   1  -6  11  241.64   25.13
   1  -6  11  253.00   24.28
   1  -6  11  274.33   24.01
   1  -6  12  253.80   24.30
   1  -6  12  234.18   21.90
   1  -6  12  265.43   23.30
   1  -6  13   22.79    6.69
   1  -6  13   16.78    6.90
   1  -6  13   39.49    8.41
   1  -6  14  373.94   27.97
   1  -6  15   51.96    7.64
   1  -6  16   94.27    9.49
   1  -6  16  114.63   10.45
   1  -6  16  120.85   10.07
   5   2 -16    5.40    2.51
   2  -7 -15   98.82    9.31
   2  -7 -14    4.96    3.38
   2  -7 -13  240.86   19.74
   2  -7 -13  191.50   15.56
   2  -7 -12   24.02    5.00
   2  -7 -12   35.96    8.18
   2  -7 -11  611.72   44.49
   2  -7 -10  129.71   17.48
   2  -7 -10  171.15   25.73
   2  -7  -9  629.55   45.42
   2  -7  -9  646.60   59.04
   2  -7  -9  573.67   50.02
   2  -7  -8  403.10   31.21
   2  -7  -8  412.08   43.92
   2  -7  -7   48.02   12.28
   2  -7  -7   55.33    9.97
   2  -7  -7   53.57   14.84
   2  -7  -6  124.00   19.05
   2  -7  -6  138.06   15.31
   2  -7  -6  141.86   24.51
   2  -7  -5   14.75    5.79
   2  -7  -5   14.97    5.29
   2  -7  -5   18.19    8.66
   2  -7  -4  624.63   54.86
   2  -7  -4  640.56   40.52
   2  -7  -4  593.49   39.80
   2  -7  -3  233.64   18.99
   2  -7  -3  227.55   19.02
   2  -7  -2  786.80   47.60
   2  -7  -2  769.01   47.17
   5   2  -2  802.84   64.30
   2  -7  -2  769.09   47.13
   2  -7  -1   23.58    5.16
   2  -7  -1   17.50    4.23
   2  -7  -1   20.08    4.81
   5   2  -1   16.52    8.63
   2  -7  -1   15.33    4.55
   2  -7   0 2311.31  123.12
   2  -7   0 2230.93  121.93
   2  -7   0 2275.40  123.21
   5   2   0 2336.77  142.76
   2  -7   0 2283.81  122.57
   2  -7   1  302.36   22.21
   5   2   1  297.94   34.39
   5   2   1  276.20   24.41
   2  -7   1  313.93   22.65
   2  -7   1  300.99   22.70
   2  -7   1  336.13   22.56
   2  -7   1  306.03   22.86
   5   2   2  208.57   28.66
   2  -7   2  206.00   17.73
   5   2   2  204.10   19.42
   2  -7   2  217.20   18.07
   2  -7   2  204.18   16.82
   5   2   3   90.79   11.88
   2  -7   3   93.52   11.09
   2  -7   3   78.75   10.38
   5   2   3   92.81   19.13
   5   2   4  288.23   36.65
   2  -7   4  272.58   26.83
   5   2   4  312.59   25.87
   2  -7   4  321.44   25.17
   2  -7   4  312.34   24.39
   5   2   5   50.90   16.04
   2  -7   5   51.16   11.03
   5   2   5   66.48   10.76
   2  -7   5   66.29   10.26
   2  -7   5   63.65   10.07
   5   2   6   72.40   11.77
   2  -7   6   87.02   13.72
   2  -7   6   88.99   12.84
   5   2   6   71.03   19.22
   5   2   7   70.19   11.93
   2  -7   7   58.05   11.22
   5   2   7   69.54   20.12
   2  -7   8  525.68   37.58
   2  -7   8  616.09   39.37
   5   2   8  577.59   62.97
   2  -7   9 1152.32   65.37
   5   2   9  881.59   90.24
   2  -7   9 1301.70   67.30
   2  -7   9  715.27   63.69
   2  -7  10   75.57   11.93
   2  -7  10   69.77   11.42
   2  -7  10   80.64   13.31
   2  -7  10   54.37   12.26
   5   2  10   38.97   17.55
   2  -7  11  762.28   48.34
   2  -7  11  643.04   50.09
   2  -7  11  765.69   50.81
   2  -7  12    4.63    4.81
   2  -7  12    2.01    4.35
   2  -7  12   -2.61    5.21
   2  -7  13   58.17    9.65
   2  -7  13   64.50    9.48
   2  -7  14    1.90    3.48
   2  -7  14   -0.61    3.45
   2  -7  14    0.57    2.82
   2  -7  15   73.43    8.31
   2  -7  15   67.27    8.33
   2  -7  15   76.36    8.52
   2  -7  16    3.04    1.86
   2  -7  16    7.19    2.12
   3  -8 -14   97.02    9.42
   3  -8 -13  175.16   15.55
   3  -8 -12  666.58   43.71
   3  -8 -11  539.08   38.96
   3  -8 -10  747.09   52.01
   3  -8  -9   73.19   12.39
   3  -8  -8   69.30   12.23
   3  -8  -7  752.74   65.58
   3  -8  -7 1053.23   61.35
   3  -8  -6   44.84    8.93
   3  -8  -5   66.56   14.51
   3  -8  -5   58.46    9.84
   3  -8  -4  850.60   52.15
   5   3  -4  767.10   56.17
   3  -8  -4  793.69   52.38
   3  -8  -4  913.94   63.53
   3  -8  -4  833.43   52.00
   3  -8  -3  152.83   15.02
   3  -8  -3  135.00   14.46
   5   3  -3  145.92   17.85
   3  -8  -3  169.59   22.45
   3  -8  -3  134.15   14.76
   3  -8  -2  750.64   47.61
   3  -8  -2  773.54   48.97
   5   3  -2  696.92   51.68
   3  -8  -2  774.11   48.21
   5   3  -1  359.92   40.11
   3  -8  -1  358.38   26.73
   3  -8  -1  404.76   28.38
   3  -8  -1  485.38   38.33
   5   3  -1  363.99   30.44
   3  -8  -1  350.69   26.69
   3  -8  -1  377.17   26.46
   5   3   0   23.09   10.46
   3  -8   0   29.87    6.19
   3  -8   0   30.52    6.65
   3  -8   0   26.35    9.57
   5   3   0   17.41    6.72
   3  -8   0   35.37    6.56
   3  -8   0   31.84    6.64
   5   3   1 2806.73  171.25
   3  -8   1 2731.93  148.84
   3  -8   1 2894.34  150.16
   3  -8   1 3264.40  163.92
   5   3   1 2729.23  152.92
   3  -8   1 2631.28  148.15
   3  -8   1 2688.62  149.41
   3  -8   2  173.80   15.94
   3  -8   2  170.50   16.28
   3  -8   2  175.61   16.44
   5   3   2  130.68   23.76
   3  -8   2  157.20   15.18
   3  -8   2  159.93   15.38
   5   3   2  154.28   17.24
   3  -8   3 1013.13   61.55
   5   3   3  966.49   76.90
   5   3   3  892.01   59.25
   3  -8   3  980.32   57.82
   3  -8   3  904.98   56.71
   3  -8   3  925.01   57.87
   3  -8   3  913.86   56.99
   3  -8   4    0.98    5.24
   5   3   4   -5.39    9.14
   5   3   4   -0.93    4.46
   3  -8   4    0.77    3.79
   3  -8   4    0.78    3.37
   3  -8   4    4.19    4.38
   3  -8   5  326.93   27.18
   5   3   5  290.12   39.04
   5   3   5  300.23   26.23
   3  -8   5  287.05   24.50
   3  -8   5  312.11   25.54
   3  -8   5  282.98   25.52
   3  -8   6  390.50   29.31
   5   3   6  381.35   46.17
   5   3   6  365.38   29.12
   3  -8   6  321.73   27.59
   3  -8   6  355.70   29.20
   3  -8   7   49.68   10.27
   3  -8   7   64.53   11.57
   5   3   7   55.87   19.43
   3  -8   7   79.74   12.17
   3  -8   7   53.06   10.38
   5   3   8  282.55   44.35
   3  -8   8  354.10   28.55
   3  -8   8  351.38   28.05
   3  -8   8  345.85   31.27
   3  -8   8  313.44   29.31
   3  -8   9  998.30   58.28
   3  -8   9  829.34   60.17
   3  -8   9  810.35   58.98
   3  -8  10  248.30   27.21
   3  -8  10  257.32   26.36
   3  -8  11  549.20   36.68
   3  -8  11  498.17   39.40
   3  -8  11  509.81   38.67
   3  -8  12  167.04   15.79
   3  -8  12  166.02   17.62
   3  -8  13    9.38    4.17
   3  -8  13   14.75    5.12
   3  -8  14   38.08    6.14
   3  -8  15   23.22    3.95
   3  -8  15   25.50    4.02
   5   4 -14  114.96    9.86
   4  -9 -13   69.56    7.46
   5   4 -13   72.33    9.01
   4  -9 -12  208.87   16.93
   5   4 -12  210.66   19.58
   4  -9 -11   88.27   11.12
   5   4 -11   78.68   13.14
   4  -9 -10  125.72   14.74
   5   4 -10  114.13   16.99
   4  -9  -9  107.67   14.34
   5   4  -9  125.62   18.49
   4  -9  -8   32.01    7.94
   5   4  -8   31.55   10.16
   4  -9  -7  528.85   38.86
   5   4  -7  518.13   43.51
   4  -9  -6    3.68    5.42
   5   4  -6   12.64    8.43
   4  -9  -5  447.65   32.80
   5   4  -5  426.15   36.84
   4  -9  -5  377.81   41.07
   4  -9  -4   89.69   11.91
   4  -9  -4   83.18   11.22
   5   4  -4   62.79   12.80
   4  -9  -4   47.16   15.81
   4  -9  -3  232.82   20.84
   4  -9  -3  187.85   28.46
   4  -9  -3  261.75   21.43
   5   4  -3  253.60   24.95
   4  -9  -2   25.24    6.68
   4  -9  -2   26.90   11.45
   4  -9  -2   23.03    6.77
   4  -9  -2   26.85    6.93
   5   4  -2   36.01    8.85
   4  -9  -1  111.19   13.07
   4  -9  -1  123.54   21.69
   4  -9  -1  126.60   14.94
   4  -9  -1  125.09   13.61
   5   4  -1  126.33   16.33
   5   4   0   19.39    9.71
   4  -9   0   18.85    5.60
   4  -9   0   22.82    6.22
   4  -9   0   20.65   10.28
   4  -9   0   27.92    7.05
   4  -9   0   25.56    6.52
   5   4   0   23.53    7.65
   5   4   1  375.36   43.32
   4  -9   1  383.79   29.32
   4  -9   1  431.73   29.39
   4  -9   1  452.94   31.88
   4  -9   1  431.90   29.45
   5   4   1  383.88   31.55
   4  -9   2  588.54   37.90
   4  -9   2  494.25   34.89
   4  -9   2  481.35   35.49
   5   4   2  502.46   37.76
   5   4   2  522.87   51.81
   4  -9   3  205.36   18.38
   5   4   3  211.07   31.64
   4  -9   3  213.58   19.79
   4  -9   3  203.81   18.95
   4  -9   3  226.00   20.43
   5   4   3  197.98   20.31
  -9   5   3  193.16   17.29
   5   4   4  163.77   27.64
   4  -9   4  155.10   16.64
   4  -9   4  176.90   17.74
   4  -9   4  182.11   17.72
   4  -9   4  150.17   15.84
   5   4   4  137.12   16.66
   5   4   5   92.81   22.19
   4  -9   5  126.31   15.01
   4  -9   5   93.46   13.80
   4  -9   5   84.91   12.40
   4  -9   5  111.47   13.39
   5   4   5  131.71   15.54
   5   4   6  326.02   43.45
   4  -9   6  334.04   28.56
   4  -9   6  310.53   27.51
   5   4   6  295.23   26.84
   4  -9   6  329.94   26.87
   4  -9   7   24.81    7.78
   4  -9   7   23.12    8.45
   4  -9   7   25.08    8.67
   4  -9   8  501.79   38.38
   4  -9   8  545.68   40.86
   4  -9   9    3.97    4.12
   4  -9   9   -2.26    5.06
   4  -9  10  282.57   24.49
   4  -9  10  274.87   25.93
   4  -9  11    1.46    3.61
   4  -9  11   10.98    5.07
   4  -9  11    0.84    3.76
   4  -9  12  189.59   16.34
   4  -9  12  203.31   17.32
   4  -9  12  208.58   17.81
   4  -9  13   28.96    4.78
   4  -9  13   30.38    5.36
   4  -9  13   28.97    5.25
   4  -9  14   52.78    5.29
   4  -9  14   50.69    5.46
   4  -9  14   62.09    5.88
   5   5 -12   22.31    4.48
   5 -10 -11   25.21    4.91
   5   5 -11   31.57    6.60
   5 -10 -10   29.15    5.90
   5   5 -10   29.83    8.10
   5 -10  -9   38.92    7.45
   5   5  -9   51.40   10.52
   5 -10  -8   76.23   11.06
   5   5  -8   85.62   14.75
   5 -10  -7  329.19   26.75
   5   5  -7  355.97   31.57
   5 -10  -6  212.83   19.93
   5   5  -6  202.15   22.78
   5 -10  -5  191.37   18.53
   5   5  -5  204.42   22.48
   5 -10  -4  552.81   38.59
   5   5  -4  585.35   43.21
   5 -10  -3   12.19    5.12
   5   5  -3    7.90    6.24
   5 -10  -3   15.43    5.81
   5 -10  -2  123.91   14.19
   5   5  -2  142.24   17.30
   5 -10  -2  138.08   14.52
   5   5  -1   25.83    7.70
   5 -10  -1   24.73    6.56
   5 -10  -1   13.73    5.29
   5   5   0  558.49   41.23
   5 -10   0  593.47   38.66
   5 -10   0  582.77   39.05
   5 -10   1  172.04   18.83
   5   5   1  188.48   19.17
   5 -10   1  191.53   17.99
   5 -10   2  197.13   20.85
   5   5   2  228.92   21.50
 -10   5   2  200.61   18.69
   5 -10   2  235.43   20.57
   5 -10   2  253.23   20.59
   5   5   3   31.88    8.07
 -10   5   3   28.49    6.40
   5 -10   3   45.32    8.68
   5 -10   3   37.11    7.71
   5   5   4  541.23   39.22
   5 -10   4  549.61   39.30
   5 -10   4  602.02   39.72
   5   5   5  389.36   30.39
   5 -10   5  408.01   31.10
   5 -10   5  377.51   30.05
   5 -10   6  199.74   20.41
   5 -10   6  209.50   20.77
   5 -10   7  556.75   37.50
   5 -10   7  550.00   39.76
   5 -10   7  540.19   39.62
   5 -10   8  185.17   17.73
   5 -10   8  196.63   19.98
   5 -10   8  212.09   20.34
   5 -10   9   60.87    9.37
   5 -10   9   72.64   11.15
   5 -10   9   89.28   11.99
   5 -10  10  119.23   12.16
   5 -10  10  135.16   14.48
   5 -10  10  138.99   14.29
   5 -10  11  101.95    9.85
   5 -10  11  120.77   11.79
   5 -10  11  118.31   11.41
   5 -10  12   33.57    4.98
   5 -10  12   35.71    5.12
   5   6 -10  230.52   16.37
   5   6  -9    1.14    3.14
   5   6  -8  107.66   12.85
   5   6  -7   24.43    6.81
   5   6  -6  223.88   21.11
   5   6  -5   75.24   11.50
   5   6  -4  195.03   19.57
   5   6  -3   31.59    7.82
   5   6  -2  280.57   24.18
   5   6  -1  155.46   16.52
   5   6   0   74.73   10.88
 -11   5   0   69.46   10.02
   5   6   1  463.69   33.92
 -11   5   1  492.20   32.93
   5   6   2    4.46    4.19
 -11   5   2    1.22    3.11
   5   6   3  497.59   34.50
   5   6   4   13.47    5.08
   6 -11   5  145.38   15.35
   6 -11   6   26.05    6.63
   6 -11   7  103.52   12.40
   6 -11   8   45.70    7.64
   6 -11   9  358.77   24.74
   6 -11  10   99.98    9.24
   4   6 -12   17.54    3.59
   6 -10 -11   31.93    5.11
   4   6 -11   38.11    6.41
   6 -10 -10  124.37   12.18
   4   6 -10  116.08   13.86
   6 -10  -9   58.14    8.91
   4   6  -9   61.48   10.81
   6 -10  -8  327.20   27.12
   4   6  -8  386.94   31.49
   6 -10  -7  602.15   39.96
   4   6  -7  540.06   42.66
   6 -10  -6   26.48    7.17
   4   6  -6   32.67    9.29
   6 -10  -5  478.01   34.71
   4   6  -5  507.37   38.71
   6 -10  -4   61.66    9.91
   4   6  -4   69.09   12.42
   6 -10  -3  262.11   21.42
   4   6  -3  239.39   23.28
   6 -10  -3  235.24   20.96
   6 -10  -2   17.81    5.87
   6 -10  -2    8.04    4.59
   4   6  -2   11.94    5.75
   6 -10  -1  104.40   12.51
   4   6  -1  101.69   13.92
   6 -10  -1  119.24   13.25
   6 -10   0   43.70    8.41
   4   6   0   48.79    9.60
   6 -10   0   43.95    7.98
   4   6   1  430.46   31.85
 -10   4   1  430.00   31.31
   6 -10   1  392.53   30.11
   4   6   2  243.94   21.73
 -10   4   2  223.46   20.84
   6 -10   2  244.61   21.38
   6 -10   2  279.34   22.29
   4   6   3  286.29   24.38
 -10   4   3  330.23   24.65
   6 -10   3  280.01   24.22
   6 -10   3  304.44   25.00
   4   6   4  677.15   44.65
 -10   4   4  642.89   42.86
   6 -10   4  695.72   45.52
   6 -10   4  700.26   45.79
 -10   4   5    7.44    3.97
   6 -10   5   15.00    6.80
   6 -10   5   17.16    7.21
   6 -10   6  263.70   23.91
   6 -10   6  265.02   24.19
   6 -10   7    0.93    4.84
   6 -10   7    4.75    4.84
   6 -10   8   26.95    5.86
   6 -10   8   43.64    9.13
   6 -10   8   31.73    8.23
   6 -10   9    5.54    3.41
   6 -10   9   12.64    5.82
   6 -10  10  309.42   24.05
   6 -10  11   17.13    4.51
   6 -10  12  342.04   22.69
   6 -10  12  390.11   22.94
   3   6 -13   45.12    6.18
   6  -9 -12  141.25   12.68
   3   6 -12  151.17   14.76
   6  -9 -11  147.62   14.62
   3   6 -11  156.80   17.15
   6  -9 -10    5.71    4.49
   3   6 -10    3.50    5.24
   6  -9  -9  460.11   37.46
   3   6  -9  679.88   45.76
   6  -9  -8   77.94   12.30
   3   6  -8   86.00   14.98
   6  -9  -7  621.22   43.17
   3   6  -7  604.90   46.77
   6  -9  -6  244.34   21.91
  -9   3  -6  202.38   19.47
   3   6  -6  252.74   25.37
   6  -9  -5   19.47    6.41
   3   6  -5   18.00    7.67
   6  -9  -4  929.48   58.18
   3   6  -4  962.66   62.44
   6  -9  -3   51.90    8.93
   6  -9  -3   59.29    9.40
   3   6  -3   39.87    9.34
   6  -9  -2  372.89   27.48
   3   6  -2  347.23   29.38
   6  -9  -2  373.23   27.46
   6  -9  -1  163.73   15.52
   6  -9  -1  161.42   15.86
   3   6  -1  150.69   16.82
  -9   3   0  294.62   22.01
   3   6   0  300.21   24.73
   6  -9   0  261.83   22.44
   6  -9   0  294.99   22.98
   3   6   1    7.50    5.00
   6  -9   1   -1.37    3.93
   6  -9   1    0.73    3.84
   6  -9   1   -0.76    3.99
  -9   3   2  484.14   34.77
   6  -9   2  470.77   33.73
   6  -9   2  496.65   34.38
   3   6   2  471.97   34.22
  -9   3   3  487.08   35.35
   6  -9   3  529.74   36.29
   6  -9   3  496.52   35.35
   3   6   3  481.48   34.84
   6  -9   4 1623.04   94.43
  -9   3   4 1735.35   98.09
   6  -9   4 1726.41   98.81
   6  -9   4 1835.38  100.05
   6  -9   4 1744.52   97.48
   3   6   4 1708.87   97.55
   6  -9   5 1035.27   61.44
  -9   3   5 1060.20   63.42
   6  -9   5 1104.64   66.05
   6  -9   5 1015.31   63.35
   3   6   5 1027.07   63.58
   6  -9   6  198.35   20.56
   6  -9   6  191.09   17.39
   6  -9   6  156.06   17.45
  -9   3   6  214.27   18.51
   6  -9   7   21.17    7.16
   6  -9   7   21.02    5.94
   6  -9   7   27.72    6.91
  -9   3   7   20.50    5.86
   6  -9   8   42.73    9.88
   6  -9   8   42.49    8.05
   6  -9   8   32.20    8.03
   6  -9   8   47.14    8.47
   6  -9   9   10.92    6.17
   6  -9   9   13.19    6.49
   6  -9   9    7.87    4.57
   6  -9   9   12.43    4.70
   6  -9   9   18.80    6.20
   6  -9  10    8.77    4.97
   6  -9  10    4.56    4.78
   6  -9  10    4.93    3.39
   6  -9  10    6.64    3.49
   6  -9  10    4.81    3.98
   6  -9  11  385.67   27.34
   6  -9  11  441.78   30.37
   6  -9  11  392.29   30.31
   6  -9  12   37.07    5.50
   6  -9  12   35.05    6.69
   6  -9  12   48.22    7.15
   6  -9  13  649.91   38.31
   6  -9  13  681.83   39.07
   2   6 -14   82.80    8.83
   6  -8 -14   87.16    7.71
   6  -8 -13  160.76   13.71
   6  -8 -13  157.18   13.47
  -8   2 -12  236.47   18.71
   6  -8 -12  293.00   22.26
   6  -8 -12  300.43   22.23
   6  -8 -11  230.79   21.55
   6  -8 -11  258.40   22.32
   6  -8 -10  222.71   23.33
   6  -8 -10  232.28   23.44
  -8   2  -9   23.92    7.14
   6  -8  -9   23.58    7.56
   6  -8  -9   13.31    6.59
  -8   2  -8  169.77   18.99
   6  -8  -8  183.84   19.79
   6  -8  -8  193.95   20.37
  -8   2  -7  189.68   18.88
   6  -8  -7  209.06   20.37
   6  -8  -7  148.98   18.19
  -8   2  -6  677.75   44.61
   6  -8  -6  769.51   48.56
   6  -8  -6  703.24   47.74
   2   6  -5   23.46    8.21
   6  -8  -5   16.36    6.27
  -8   2  -5   18.17    5.13
   6  -8  -5   20.45    6.86
   6  -8  -4 1048.98   64.81
   6  -8  -4 1135.14   65.48
   2   6  -4 1062.63   68.12
  -8   2  -4 1092.96   63.50
   6  -8  -3   14.51    5.09
   6  -8  -3   11.85    4.79
   2   6  -3   17.06    6.47
  -8   2  -3   14.95    4.84
   6  -8  -2  346.22   25.70
  -8   2  -2  346.57   25.14
   6  -8  -2  348.29   25.48
   2   6  -2  331.14   27.38
  -8   2  -1  419.56   28.75
   2   6  -1  382.85   29.99
   6  -8  -1  401.90   28.66
   6  -8  -1  428.08   28.91
   2   6   0    6.12    3.45
   6  -8   0    7.80    3.91
   6  -8   0    9.74    4.35
   6  -8   0    1.83    3.20
   2   6   1  902.08   57.71
   6  -8   1  976.72   57.10
   6  -8   1  992.51   57.68
  -8   2   2   25.39    6.83
   6  -8   2   36.94    6.96
   6  -8   2   33.75    6.84
   2   6   2   25.48    6.13
  -8   2   3  955.32   60.47
   6  -8   3 1043.82   60.53
   6  -8   3 1006.56   60.21
   2   6   3  940.83   58.87
   6  -8   4    4.07    3.55
  -8   2   4    1.67    4.91
   6  -8   4    0.81    3.75
   6  -8   4    0.82    3.25
   2   6   4    1.41    3.69
   6  -8   5  445.43   31.60
   6  -8   5  488.81   34.24
   6  -8   5  521.93   36.77
   6  -8   5  483.98   35.64
  -8   2   5  443.03   34.01
   6  -8   5  458.85   34.77
   2   6   5  521.83   34.24
   6  -8   6    5.89    4.86
   6  -8   6    1.03    5.37
   6  -8   6    3.52    3.28
   6  -8   6    7.29    4.64
   6  -8   6    2.95    4.57
  -8   2   6    2.49    4.57
   6  -8   7  390.58   32.74
   6  -8   7  401.19   32.40
   6  -8   7  361.69   28.55
   6  -8   7  351.85   30.58
   6  -8   7  399.23   32.32
  -8   2   7  374.18   29.25
   6  -8   8  398.57   34.06
   6  -8   8  427.68   34.82
   6  -8   8  424.17   31.41
   6  -8   8  398.07   33.40
  -8   2   8  468.09   31.96
   6  -8   9   99.02   15.80
   6  -8   9  104.05   14.03
   6  -8   9  105.36   14.82
   6  -8   9   97.77   15.12
  -8   2   9   99.52   13.08
   6  -8  10  168.97   19.42
   6  -8  10  151.30   19.26
   6  -8  10  127.94   15.95
   6  -8  11  104.65   14.04
   6  -8  11  142.08   15.87
   6  -8  11  109.75   15.40
   6  -8  11  130.75   14.79
   6  -8  11  113.00   13.56
   6  -8  12  165.13   16.59
   6  -8  12  166.86   15.72
   6  -8  12  201.09   17.20
   6  -8  12  192.64   17.22
   6  -8  12  164.69   17.68
   6  -8  13   21.13    4.75
   6  -8  13   21.38    4.46
   6  -8  13   16.10    4.61
   6  -8  13   21.68    5.41
   6  -8  13   24.77    5.31
   6  -8  14  135.77   11.03
   6  -8  14  161.88   12.77
   6  -8  14  150.08   11.66
   6  -7 -15   15.32    3.67
  -7   1 -15   10.58    2.35
   6  -7 -14  265.67   18.91
   6  -7 -14  290.75   20.36
  -7   1 -14  246.56   18.20
   6  -7 -13   65.80    8.72
   6  -7 -13   40.91    8.22
  -7   1 -13   57.20    7.94
   6  -7 -12  578.38   41.24
   6  -7 -12  591.39   39.90
   6  -7 -11  152.23   17.42
   6  -7 -11  171.54   19.53
  -7   1 -11  162.47   18.03
   6  -7 -10   55.74   10.67
   6  -7 -10   58.92   12.18
  -7   1 -10   78.68   12.76
   6  -7  -9  258.22   24.85
   6  -7  -9  270.53   26.58
  -7   1  -9  247.65   25.29
   6  -7  -8   13.33    6.16
   6  -7  -8    4.80    5.41
  -7   1  -8    7.44    5.43
   6  -7  -7  498.66   38.92
   6  -7  -7  531.42   37.82
   6  -7  -6    2.49    4.11
   6  -7  -6    5.87    4.98
  -7   1  -6    4.38    3.82
   6  -7  -5 1165.72   67.40
  -7   1  -5 1121.39   66.10
   6  -7  -5 1087.24   68.29
   6  -7  -4  320.25   24.20
   6  -7  -4  298.85   24.73
   6  -7  -4  329.59   24.16
  -7   1  -4  318.01   23.63
   6  -7  -4  274.33   23.07
   6  -7  -3  856.58   50.16
   6  -7  -3  835.78   50.31
   1   6  -3  769.71   51.65
   6  -7  -3  926.35   64.80
   6  -7  -3  812.10   51.37
  -7   1  -3  820.16   50.30
   6  -7  -2   75.87   16.73
   6  -7  -2   81.04    9.81
   1   6  -2   92.27   11.19
  -7   1  -2   97.19   10.86
   6  -7  -2   81.40    9.63
   6  -7  -1   33.71   12.13
   6  -7  -1   57.99    7.56
   6  -7  -1   41.61    6.70
   6  -7   0  186.34   16.03
   6  -7   0  181.88   15.14
   6  -7   0  122.80   22.87
  -7   1   0  148.93   19.56
   6  -7   0  163.19   14.31
   6  -7   1  171.65   14.94
   6  -7   1  168.03   15.43
   6  -7   1  165.84   14.29
   6  -7   1  153.57   15.23
   6  -7   2  559.79   35.39
   6  -7   2  527.57   35.70
   6  -7   2  542.15   36.19
   6  -7   2  560.04   48.52
   6  -7   2  538.85   34.28
  -7   1   2  501.11   36.15
   6  -7   3  337.96   35.27
   6  -7   3  346.95   26.27
   6  -7   3  323.96   25.08
   6  -7   3  346.45   25.99
  -7   1   3  355.09   26.89
   6  -7   4  358.53   27.41
   6  -7   4  388.26   28.68
  -7   1   4  375.72   28.37
   6  -7   4  390.89   36.39
   6  -7   4  353.74   28.11
   6  -7   4  352.59   26.48
   6  -7   5  408.24   31.50
   6  -7   5  396.56   30.56
  -7   1   5  413.15   30.93
   6  -7   5  430.21   32.33
   6  -7   5  407.78   30.56
   6  -7   6  327.05   26.41
  -7   1   6  285.75   24.72
   6  -7   6  339.94   28.09
   6  -7   6  260.96   22.49
   6  -7   6  320.40   26.24
   6  -7   7    3.06    5.04
   6  -7   7    9.40    5.98
   6  -7   7    1.07    3.87
  -7   1   7    7.95    5.61
   6  -7   8  337.08   30.25
  -7   1   8  381.79   28.32
  -7   1   9  203.49   34.75
  -7   1   9  211.11   21.79
   6  -7   9  222.21   25.13
   6  -7   9  248.64   24.04
  -7   1  10  278.87   26.16
   6  -7  10  222.91   27.47
   6  -7  11   11.73    6.81
   6  -7  11   -2.80    4.62
   6  -7  12  255.71   24.94
   6  -7  12  277.08   23.16
   6  -7  13    8.01    4.14
   6  -7  13   17.89    4.81
   6  -7  13    8.10    4.61
   6  -7  13    4.15    4.13
   6  -7  13    5.79    3.88
   6  -7  14  146.68   12.45
   6  -7  14  150.56   14.19
   6  -7  14  159.04   14.73
   6  -7  14  176.32   13.82
  -7   1  15  108.88    8.79
   6  -7  15  127.42    9.50
   6  -7  15  117.61   10.09
   6  -6 -16   55.05    5.84
  -6   0 -16   46.76    5.26
   6  -6 -15  344.41   22.66
  -6   0 -15  338.50   21.97
   6  -6 -15  289.84   20.29
   6  -6 -14    4.76    4.54
  -6   0 -14    5.23    4.00
   6  -6 -14   -1.49    3.20
   6  -6 -13  140.48   16.26
  -6   0 -13  131.86   14.55
   6  -6 -13  136.90   14.05
   6  -6 -12  228.36   23.42
   6  -6 -12  221.88   20.75
   6  -6 -11  175.25   21.00
   6  -6 -11  160.73   18.42
  -6   0 -11  182.90   20.62
  -6   0 -10   42.66   10.71
   6  -6 -10   24.62    9.15
   6  -6 -10   23.66    7.43
  -6   0 -10   39.40   13.19
  -6   0  -9  751.54   51.41
   6  -6  -9  693.72   51.66
   6  -6  -9  697.96   48.86
  -6   0  -8  204.84   21.54
   6  -6  -8  199.58   22.87
   6  -6  -8  219.73   21.26
  -6   0  -8  153.71   29.11
  -6   0  -7 1200.01   70.49
   6  -6  -7 1120.09   73.10
   6  -6  -7 1204.33   70.70
  -6   0  -7 1080.97   87.48
  -6   0  -6  288.77   33.90
  -6   0  -6  306.29   23.96
   6  -6  -6  253.18   26.72
   6  -6  -6  318.06   24.23
   6  -6  -6  302.01   26.35
  -6   0  -5   11.57    6.59
  -6   0  -5    7.54    4.30
   6  -6  -5   12.18    4.38
   6  -6  -5    7.68    5.04
   6  -6  -5   11.55    6.55
  -6   0  -4 1962.76  107.97
   6  -6  -4 2144.33  119.31
   6  -6  -4 1968.42  107.04
   6  -6  -4 1849.58  109.04
   6  -6  -3  108.36   11.35
   6  -6  -3  122.16   11.54
  -6   0  -3  133.43   12.89
   6  -6  -3  113.45   12.73
   6  -6  -3  137.94   19.39
   6  -6  -2  659.63   44.47
   6  -6  -2  825.71   58.57
   6  -6  -2  751.39   43.08
   6  -6  -1   40.15   11.59
   6  -6  -1   33.02    5.29
  -6   0  -1   30.57    9.32
  -6   0   0  403.81   34.49
   6  -6   0  353.63   24.26
   6  -6   0  385.80   27.02
   6  -6   0  326.13   37.37
   6  -6   0  396.34   26.39
  -6   0   1   29.54    8.02
   6  -6   1   30.08    5.02
   6  -6   1   27.90    5.82
   6  -6   1   26.38    5.51
   6  -6   2  222.65   19.11
   6  -6   2  221.49   18.18
  -6   0   2  222.52   19.23
   6  -6   3    9.03    7.68
   6  -6   3   10.16    4.38
   6  -6   3    9.16    4.05
   6  -6   3   11.66    3.81
  -6   0   3   12.01    5.11
   6  -6   4 1946.07  101.65
   6  -6   4 1843.20  103.47
   6  -6   4 1911.12  111.68
   6  -6   4 1741.62  101.22
   6  -6   4 1798.60  100.84
  -6   0   4 1741.06  101.89
   6  -6   5  956.92   55.99
   6  -6   5  870.02   60.80
   6  -6   5  900.49   56.76
   6  -6   5  840.20   53.70
  -6   0   5  854.78   54.67
  -6   0   6  191.61   18.12
   6  -6   6  147.19   18.81
   6  -6   6  156.49   18.77
  -6   0   7  171.99   17.65
   6  -6   7  137.99   18.32
  -6   0   8   23.55    8.59
   6  -6   8   29.03    9.33
   6  -6   9   21.64    8.97
  -6   0   9   25.28    8.82
  -6   0  10   10.92   12.36
   6  -6  10    6.68    6.03
  -6   0  10   15.40    7.80
   6  -6  10    9.47    6.58
  -6   0  11  229.76   22.88
   6  -6  11  270.83   28.74
   6  -6  11  276.26   24.32
  -6   0  12  279.66   23.38
   6  -6  12  306.61   29.30
   6  -6  12  296.03   24.94
   6  -6  13  583.34   42.90
   6  -6  14    2.01    2.55
  -6   0  14    4.95    3.38
   6  -6  14    3.26    3.79
   6  -6  15  379.10   25.57
   6  -6  15  387.36   27.38
  -6   0  15  420.07   25.07
  -6   0  16   69.39    6.35
   6  -6  16   83.25    7.39
   6  -5 -17  281.89   17.33
  -5  -1 -16  105.44    9.65
   6  -5 -16  100.55    9.69
   6  -5 -15   42.26    7.13
  -5  -1 -15   53.39    7.63
   6  -5 -15   37.94    5.44
   6  -5 -14  328.68   25.50
  -5  -1 -14  339.29   25.12
   6  -5 -14  291.53   22.31
   6  -5 -13   31.57    8.97
  -5  -1 -13   27.02    7.67
   6  -5 -13   27.05    6.27
   6  -5 -12  237.08   24.50
   6  -5 -12  227.71   21.41
  -5  -1 -12  255.90   24.46
  -5  -1 -11  217.56   23.76
   6  -5 -11  203.01   23.97
   6  -5 -11  203.06   21.01
  -5  -1 -10  139.06   19.05
   6  -5 -10  105.62   17.48
   6  -5 -10   84.27   13.91
  -5  -1  -9  229.71   23.42
   6  -5  -9  180.96   22.77
   6  -5  -9  215.94   21.02
  -5  -1  -8  967.35   60.44
   6  -5  -8  912.00   61.40
   6  -5  -8  935.53   57.49
  -5  -1  -7  158.01   16.92
   6  -5  -7  164.03   19.15
   6  -5  -7  209.50   18.00
  -5  -1  -7  165.13   27.39
  -5  -1  -6 1066.55   80.03
  -5  -1  -6 1047.94   63.89
   6  -5  -6 1075.55   66.48
   6  -5  -6 1023.91   67.67
   6  -5  -6 1106.52   62.99
  -5  -1  -5 1302.80   85.90
  -5  -1  -5 1198.46   71.77
   6  -5  -5 1235.69   73.86
   6  -5  -5 1270.56   70.59
   6  -5  -5 1267.08   78.38
  -5  -1  -4  147.96   14.55
  -5  -1  -4  195.54   22.30
   6  -5  -4  167.70   13.83
   6  -5  -4  177.12   20.65
   6  -5  -3  318.10   21.88
  -5  -1  -3  322.24   23.67
  -5  -1  -2   63.22   13.60
   6  -5  -2   64.35    6.91
   6  -5  -2   52.16   12.68
  -5  -1  -1   33.72    9.23
   6  -5  -1   28.42    5.91
   6  -5  -1   21.96    8.72
   6  -5  -1   23.09    4.04
   6  -5   0   81.17   16.62
   6  -5   0  107.55   11.69
   6  -5   0  129.61   10.01
  -5  -1   0  108.11   16.08
   6  -5   1  789.29   48.38
   6  -5   1  795.27   45.22
  -5  -1   1  846.66   55.97
   6  -5   2 1338.03   79.41
   6  -5   2 1585.07   92.63
  -5  -1   2 1415.49   85.76
   6  -5   3 1442.37   85.90
  -5  -1   3 1476.69   85.26
   6  -5   4   27.79    6.83
   6  -5   4   45.96   10.67
  -5  -1   4   34.74    6.80
   6  -5   5  168.14   17.76
   6  -5   5  173.25   19.65
  -5  -1   5  159.51   16.21
   6  -5   6  607.40   44.20
   6  -5   6  637.80   44.89
  -5  -1   6  611.40   41.50
   6  -5   7   46.53   11.22
   6  -5   7   66.06   11.09
   6  -5   8  474.84   41.18
  -5  -1   8  506.34   37.90
   6  -5   9  174.97   23.62
  -5  -1   9  190.77   21.42
  -5  -1  10   23.70    9.27
  -5  -1  10    7.81   11.51
  -5  -1  10   18.67    6.58
  -5  -1  11  783.48   52.36
  -5  -1  11  779.33   74.66
   6  -5  11  699.56   56.74
  -5  -1  12  117.70   14.38
  -5  -1  13  148.10   14.89
  -5  -1  14  363.19   25.55
   6  -5  15   13.09    4.32
  -5  -1  15   24.99    5.14
   6  -5  16  270.54   17.66
  -5  -1  16  234.53   16.61
   6  -5  17   14.97    2.68
  -4  -2 -17   90.68    7.91
   6  -4 -17   84.42    7.61
  -4  -2 -16   43.76    6.45
   6  -4 -16   52.59    6.73
  -4  -2 -15   69.77    9.54
   6  -4 -15   69.46    9.53
   6  -4 -14  226.50   19.54
  -4  -2 -14  210.96   18.66
   6  -4 -13  450.05   34.14
  -4  -2 -13  423.57   32.74
   6  -4 -13  409.02   29.78
   6  -4 -12  777.37   50.93
   6  -4 -12  831.87   56.34
   6  -4 -11  168.93   21.97
   6  -4 -11  160.83   18.19
  -4  -2 -11  222.06   35.73
  -4  -2 -11  201.72   31.89
  -4  -2 -11  185.47   21.35
   6  -4 -10  253.16   26.78
  -4  -2 -10  295.68   27.25
  -4  -2 -10  340.25   44.12
   6  -4  -9   16.16    8.46
   6  -4  -9   27.60    9.28
  -4  -2  -9   26.03    8.60
   6  -4  -9   19.71    6.44
  -4  -2  -9   13.60   10.04
   6  -4  -8   25.74    9.58
   6  -4  -8   32.63    9.25
  -4  -2  -8   24.24    7.89
   6  -4  -8   23.90    6.19
  -4  -2  -8   15.63   10.00
   6  -4  -7  170.83   24.30
   6  -4  -7  205.80   20.34
  -4  -2  -7  170.39   17.57
   6  -4  -7  174.81   16.07
  -4  -2  -7  210.40   32.31
  -4  -2  -7  154.18   27.24
  -4  -2  -6   28.78   11.29
  -4  -2  -6   13.29    4.95
   6  -4  -6    9.21    5.89
   6  -4  -6   21.20    6.74
   6  -4  -6   16.44    6.18
   6  -4  -6   15.23    4.30
   6  -4  -5 1794.88  113.09
   6  -4  -5 1732.53  100.25
  -4  -2  -5 1766.50   98.70
   6  -4  -5 1799.18  104.39
  -4  -2  -5 1891.84  114.65
   6  -4  -4 1243.78   79.61
   6  -4  -4 1072.81   65.83
   6  -4  -4 1243.74   73.50
  -4  -2  -4 1105.12   75.68
  -4  -2  -4 1098.39   64.80
  -4  -2  -3 1533.09  100.28
   6  -4  -3 1490.62   95.67
  -4  -2  -2  126.36   18.91
   6  -4  -2  117.70   16.79
   6  -4  -1   31.11    7.38
  -4  -2  -1   28.59    9.08
   6  -4  -1   39.85    6.52
  -4  -2   0  771.99   52.02
   6  -4   0  678.43   42.47
  -4  -2   0  678.63   42.14
  -4  -2   1  527.90   40.99
   6  -4   1  514.14   38.68
  -4  -2   1  552.64   34.37
   6  -4   1  523.52   34.32
   6  -4   2  919.92   59.27
  -4  -2   2  897.22   53.78
   6  -4   2  925.73   54.39
   6  -4   3  737.07   50.67
   6  -4   3  744.87   46.27
   6  -4   4   70.84   12.10
   6  -4   4   80.37   10.73
   6  -4   4   78.81   13.28
   6  -4   5  704.20   53.06
  -4  -2   5  763.48   47.48
   6  -4   5  749.34   48.94
   6  -4   5  767.34   52.00
   6  -4   6   79.69   14.51
   6  -4   6  100.93   13.68
   6  -4   6   91.30   13.21
  -4  -2   6   93.56   12.02
  -4  -2   7    3.10    6.47
  -4  -2   7   13.60    6.28
   6  -4   7   14.65    5.74
   6  -4   7   18.25    8.21
  -4  -2   8 1626.90   96.98
  -4  -2   9  486.78   39.25
  -4  -2  10 1019.29   64.01
  -4  -2  10  886.84   60.45
  -4  -2  10  821.40   86.00
  -4  -2  11    8.40    6.30
  -4  -2  11    0.87    5.11
  -4  -2  11   20.76   12.45
  -4  -2  12  274.86   22.46
  -4  -2  12  277.98   24.37
  -4  -2  13   37.35    8.14
  -4  -2  13   45.24    7.12
  -4  -2  13   40.05    7.87
   6  -4  14   74.71   11.79
  -4  -2  14   61.69    8.80
  -4  -2  14   51.05    8.17
   6  -4  15  155.21   16.35
  -4  -2  15  175.63   14.30
  -4  -2  15  146.01   13.73
   6  -4  15  181.05   15.13
   6  -4  16   76.50    9.22
  -4  -2  16   74.83    8.14
   6  -4  16   87.44    8.72
  -4  -2  17  260.38   16.95
   6  -4  17  290.90   17.52
   6  -3 -17   68.26    6.39
  -3  -3 -17   70.26    7.03
   6  -3 -16   24.02    4.74
   6  -3 -15  557.05   36.12
   6  -3 -14    3.15    4.54
   6  -3 -13  580.16   41.58
   6  -3 -12   30.25    8.96
  -3  -3 -11  293.34   36.95
  -3  -3 -11  326.99   43.24
   6  -3 -11  236.02   25.33
   6  -3 -11  199.99   28.66
   6  -3 -10   42.70   13.22
  -3  -3 -10   36.70   14.11
  -3  -3 -10   52.28   17.36
   6  -3 -10   32.25   10.00
  -3  -3 -10   46.74   10.63
   6  -3  -9   64.48   15.86
  -3  -3  -9   80.43   19.72
   6  -3  -9   65.50   12.50
  -3  -3  -9   57.06   12.14
   6  -3  -8  372.94   40.54
   6  -3  -8  418.96   34.15
  -3  -3  -8  436.61   33.63
  -3  -3  -8  338.04   44.93
  -3  -3  -8  354.04   45.96
   6  -3  -7  401.91   30.96
   6  -3  -7  419.04   41.51
  -3  -3  -7  313.86   43.51
  -3  -3  -7  373.59   43.54
  -3  -3  -7  362.63   43.20
   6  -3  -6  324.05   25.30
   6  -3  -6  261.56   32.73
  -3  -3  -6  301.42   36.06
  -3  -3  -6  253.88   36.24
  -3  -3  -6  297.81   40.13
  -3  -3  -5  914.74   66.56
  -3  -3  -5  930.07   81.10
  -3  -3  -5  852.31   51.46
   6  -3  -5  822.25   52.38
  -3  -3  -4 1398.64   98.63
  -3  -3  -4 1528.66  117.30
  -3  -3  -3   19.74    8.40
  -3  -3  -2  515.46   42.94
  -3  -3  -2  467.72   30.94
   6  -3  -1  263.05   19.42
  -3  -3  -1  270.00   27.49
  -3  -3  -1  238.49   18.94
   6  -3   0 2001.99  120.26
   6  -3   0 2098.64  111.73
  -3  -3   0 2035.39  121.77
  -3  -3   0 2065.90  111.75
   6  -3   1   22.12    4.97
   6  -3   1   16.60    6.61
  -3  -3   1   24.83    5.28
   6  -3   2  452.55   29.95
   6  -3   2  397.81   35.11
  -3  -3   2  441.75   29.61
   6  -3   3   66.11    8.91
   6  -3   3   45.88   10.67
  -3  -3   3   71.78    9.30
   6  -3   4  637.30   50.28
   6  -3   4  636.84   42.50
  -3  -3   4  750.08   74.33
  -3  -3   4  683.69   42.56
   6  -3   5   36.75   10.42
   6  -3   5   42.16    7.96
  -3  -3   5   46.28   18.73
   6  -3   6  393.69   39.43
  -3  -3   6  387.42   30.27
   6  -3   6  379.84   30.76
  -3  -3   6  368.00   47.73
   6  -3   7  779.23   63.91
  -3  -3   7  750.34   46.63
  -3  -3   7  690.68   49.28
   6  -3   7  723.51   48.32
  -3  -3   7  701.67   67.23
  -3  -3   8  367.80   31.26
   6  -3   8  507.41   50.90
  -3  -3   8  481.75   32.57
  -3  -3   8  371.96   33.68
  -3  -3   9  459.11   56.32
   6  -3   9  472.92   53.94
  -3  -3   9  494.74   35.50
  -3  -3   9  458.84   37.67
  -3  -3   9  439.54   34.35
   6  -3  10   21.02   10.31
  -3  -3  10    3.62    9.73
  -3  -3  10   10.97    7.23
  -3  -3  10   10.81    4.90
  -3  -3  10   14.11    7.08
  -3  -3  10   11.76    5.35
  -3  -3  11  194.09   33.45
  -3  -3  11  219.01   21.99
  -3  -3  11  211.52   20.32
  -3  -3  11  218.89   21.87
  -3  -3  11  205.11   19.95
  -3  -3  12   36.24    8.37
  -3  -3  12   33.44    8.75
  -3  -3  12   46.91    9.25
  -3  -3  13  172.16   17.08
  -3  -3  13  163.33   16.15
  -3  -3  13  178.07   17.47
  -3  -3  14   -1.28    3.97
   6  -3  14   -0.96    4.00
  -3  -3  15  413.98   27.47
   6  -3  15  386.41   29.10
  -3  -3  15  380.30   26.70
  -3  -3  16    5.88    2.84
   6  -3  16    4.68    2.74
   6  -3  16    7.41    3.25
  -3  -3  16    5.84    3.35
   6  -3  17  203.02   13.42
  -3  -3  17  183.73   13.16
  -2  -4 -17  251.77   16.24
  -2  -4 -16  376.04   24.41
   6  -2 -16  367.31   23.41
  -2  -4 -15  277.43   21.33
   6  -2 -15  298.42   21.37
  -2  -4 -14  286.22   23.14
  -2  -4 -14  274.53   21.31
   6  -2 -14  316.80   23.65
  -2  -4 -13  107.78   12.72
  -2  -4 -13   85.17   11.25
   6  -2 -13  101.46   13.13
  -2  -4 -12   78.51   11.73
   6  -2 -12   74.03   12.14
  -2  -4 -12   73.90   10.73
   6  -2 -11    8.96    7.61
  -2  -4 -11   12.56    5.61
   6  -2 -11    3.58    4.98
  -2  -4 -11   16.05    7.29
  -2  -4 -10  181.29   19.20
   6  -2 -10  178.79   26.44
  -2  -4 -10  230.05   30.99
  -2  -4 -10  132.39   29.29
  -2  -4 -10   96.85   14.38
   6  -2 -10  122.44   17.65
  -2  -4  -9   86.74   19.89
  -2  -4  -9   53.06   10.82
   6  -2  -9   71.49   17.51
  -2  -4  -9   69.08   21.21
  -2  -4  -9   80.12   13.39
   6  -2  -9   76.58   13.13
  -2  -4  -9   73.22   11.07
  -2  -4  -8 1141.53   86.70
   6  -2  -8 1318.51  102.44
  -2  -4  -8 1939.74   92.85
  -2  -4  -8 1531.26   85.70
   6  -2  -8 1692.22   90.46
  -2  -4  -8 1191.21  104.15
  -2  -4  -7   28.66    7.26
  -2  -4  -7   26.87   12.15
  -2  -4  -7   26.38   11.76
   6  -2  -7   34.10    8.06
   6  -2  -6 1106.91   65.28
  -2  -4  -6 1090.45   63.23
  -2  -4  -6 1068.83   88.93
  -2  -4  -6 1039.45   84.69
  -2  -4  -5  550.87   36.45
  -2  -4  -5  649.54   56.17
  -2  -4  -5  555.52   60.59
  -2  -4  -4   28.66   15.56
  -2  -4  -3  562.33   65.41
  -2  -4  -2  340.80   34.43
  -2  -4  -2  449.31   58.38
  -2  -4  -1  138.53   19.61
  -2  -4  -1  148.22   13.41
   6  -2  -1  121.16   17.51
  -2  -4   0  352.18   24.24
   6  -2   0  331.86   22.73
   6  -2   0  285.50   29.71
  -2  -4   1  595.40   37.21
  -2  -4   1  570.24   73.59
   6  -2   1  561.71   35.29
   6  -2   1  542.30   44.70
  -2  -4   2  262.07   20.33
   6  -2   2  210.75   17.60
   6  -2   2  229.62   25.69
  -2  -4   3  534.74   35.92
   6  -2   3  522.54   34.08
   6  -2   3  483.06   43.14
  -2  -4   4  790.68   49.43
  -2  -4   4  854.72   82.00
   6  -2   4  720.91   46.72
   6  -2   4  781.73   59.52
   6  -2   5  322.53   35.23
  -2  -4   5  332.15   24.54
  -2  -4   5  310.07   26.77
   6  -2   5  318.47   25.31
  -2  -4   5  359.88   47.67
   6  -2   6  720.21   60.45
  -2  -4   6  706.39   44.09
  -2  -4   6  604.46   45.99
   6  -2   6  695.92   45.24
  -2  -4   6  589.22   64.23
  -2  -4   7  155.39   28.96
  -2  -4   7  206.27   19.55
   6  -2   7  235.60   32.96
  -2  -4   7  187.93   18.50
  -2  -4   8   16.42    6.09
  -2  -4   8   13.46    6.92
  -2  -4   8   16.47    6.18
   6  -2   8   31.36   12.51
  -2  -4   8   34.44   13.57
   6  -2   9   90.36   23.13
  -2  -4   9   82.00   23.77
  -2  -4   9  107.83   14.94
  -2  -4   9  109.76   15.70
  -2  -4   9  108.76   14.57
   6  -2  10   19.81   10.86
  -2  -4  10   76.76   20.30
  -2  -4  10   59.19   10.42
  -2  -4  10   36.87    9.02
  -2  -4  10   46.46   10.52
  -2  -4  10   55.42   11.87
  -2  -4  11  747.88   68.03
  -2  -4  11  803.28   51.87
  -2  -4  11  660.30   49.15
   6  -2  11  636.47   68.26
  -2  -4  11  730.52   49.72
  -2  -4  11  787.48   50.31
  -2  -4  12  283.38   24.34
  -2  -4  12  275.89   24.18
  -2  -4  12  264.93   23.70
  -2  -4  12  255.01   23.47
  -2  -4  13   89.41   11.93
  -2  -4  13   95.95   12.62
  -2  -4  13  105.02   13.15
  -2  -4  13   89.95   11.67
  -2  -4  14  684.40   42.70
  -2  -4  14  708.25   43.51
   6  -2  14  648.86   44.47
  -2  -4  14  614.05   40.51
  -2  -4  15    7.63    3.23
  -2  -4  15   10.72    4.27
   6  -2  15   13.68    4.66
  -2  -4  16  314.33   20.72
   6  -2  16  263.15   20.28
  -2  -4  16  318.00   20.76
   6  -2  17   -0.25    1.45
  -1  -5 -16  223.01   15.51
  -1  -5 -15  110.76   10.00
  -1  -5 -15  101.94   10.28
   6  -1 -15   98.23    9.54
  -1  -5 -14  123.25   12.23
  -1  -5 -14  104.60   11.73
   6  -1 -14  114.75   11.73
  -1  -5 -13  355.62   27.16
   6  -1 -13  358.13   27.40
  -1  -5 -13  404.83   28.64
  -1  -5 -12  400.94   30.49
  -1  -5 -12  431.06   32.16
   6  -1 -12  419.64   31.70
  -1  -5 -11   76.64   19.52
   6  -1 -11   94.24   20.14
  -1  -5 -11   94.90   12.68
   6  -1 -11   77.42   12.63
  -1  -5 -11   90.32   13.34
  -1  -5 -10  446.29   46.53
   6  -1 -10  524.58   49.09
  -1  -5 -10  254.03   26.79
  -1  -5 -10  337.51   33.04
   6  -1 -10  311.08   28.94
  -1  -5 -10  476.08   44.76
  -1  -5  -9   35.65   12.62
   6  -1  -9   16.31    9.81
  -1  -5  -9    9.63    5.22
  -1  -5  -9   15.30    6.63
   6  -1  -9   18.41    6.65
  -1  -5  -9   12.46    7.46
  -1  -5  -8   96.41   21.15
  -1  -5  -8   90.20   14.49
  -1  -5  -8   87.60   13.08
   6  -1  -8   91.65   12.59
  -1  -5  -8   94.85   12.30
  -1  -5  -7  463.41   57.11
  -1  -5  -7  741.00   45.70
  -1  -5  -7  943.19   52.11
  -1  -5  -7  482.68   44.52
  -1  -5  -7  768.60   45.69
   6  -1  -7  771.11   46.24
  -1  -5  -6   91.92   12.52
  -1  -5  -6   89.16   11.08
  -1  -5  -6   84.11   19.72
  -1  -5  -6   82.21   21.94
  -1  -5  -6   96.21   10.95
  -1  -5  -5 1639.00   95.20
  -1  -5  -5 1710.18   92.70
  -1  -5  -5 1864.80  118.39
  -1  -5  -5 1725.23  127.96
  -1  -5  -5 1646.66   93.43
  -1  -5  -4    6.64    3.09
  -1  -5  -4    6.42    6.30
  -1  -5  -4    7.55    9.07
  -1  -5  -4    9.24    3.93
  -1  -5  -3  562.11   34.58
  -1  -5  -3  628.80   69.55
  -1  -5  -3  534.46   33.44
   6  -1  -2   10.36    7.76
  -1  -5  -2    9.23   11.08
  -1  -5  -2    5.78    2.38
   6  -1  -1   66.91   14.21
  -1  -5  -1   71.92    7.32
   6  -1   0    8.26    5.62
  -1  -5   0   10.12    4.30
  -1  -5   0    7.92    2.45
  -1  -5   0   11.24   15.07
   6  -1   1  776.66   58.98
  -1  -5   1  746.94   43.82
  -1  -5   1  838.17   51.18
  -1  -5   1  879.96   93.65
  -1  -5   2  881.26   56.95
  -1  -5   2  995.55   97.89
   6  -1   2  868.27   65.41
   6  -1   3 1330.20   93.86
   6  -1   3 1401.91   78.39
  -1  -5   3 1392.04   84.66
  -1  -5   3 1566.19  125.61
  -1  -5   3 1430.18   79.76
  -1  -5   4  259.00   20.52
   6  -1   4  307.44   33.27
   6  -1   4  251.44   19.51
  -1  -5   4  186.19   22.03
   6  -1   4  256.87   20.53
  -1  -5   4  227.74   41.51
   6  -1   5  113.56   12.31
  -1  -5   5  120.07   13.33
   6  -1   5  100.14   19.86
   6  -1   5  118.87   13.03
  -1  -5   5   74.48   13.86
  -1  -5   5  100.56   26.22
  -1  -5   6  219.26   19.35
   6  -1   6  156.88   27.08
   6  -1   6  182.32   17.44
  -1  -5   6  193.02   17.27
  -1  -5   6  156.43   19.64
  -1  -5   6  160.63   31.25
   6  -1   7  281.60   23.98
  -1  -5   7  202.84   32.81
  -1  -5   7  256.14   22.85
  -1  -5   7  255.90   25.07
  -1  -5   7  293.06   25.19
  -1  -5   8  241.59   36.90
   6  -1   8  306.87   42.60
  -1  -5   8  265.50   24.90
  -1  -5   8  307.32   26.98
   6  -1   8  307.02   26.50
   6  -1   9   54.37   20.74
  -1  -5   9  115.83   23.30
  -1  -5   9   77.14   13.64
  -1  -5   9   98.03   15.71
  -1  -5   9   81.73   13.49
  -1  -5  10  588.63   56.85
  -1  -5  10  720.30   46.20
  -1  -5  10  639.66   44.06
  -1  -5  10  748.35   44.27
  -1  -5  11  142.00   16.87
  -1  -5  11  146.96   17.18
   6  -1  11   94.34   23.57
  -1  -5  11  122.25   22.64
  -1  -5  11  108.91   15.96
  -1  -5  11  151.69   16.80
  -1  -5  12  529.28   37.98
  -1  -5  12  545.67   38.97
  -1  -5  12  523.00   39.03
  -1  -5  12  540.79   38.42
  -1  -5  13   12.89    5.23
   6  -1  13    7.09    4.78
  -1  -5  13    9.43    5.60
  -1  -5  13   11.27    5.72
  -1  -5  13    9.67    5.40
  -1  -5  14  121.14   12.62
   6  -1  14   94.24   11.94
  -1  -5  14  114.14   12.66
  -1  -5  14  131.28   13.67
   6  -1  15  362.39   26.65
  -1  -5  15  438.06   28.22
  -1  -5  15  425.06   27.90
  -1  -5  15  425.30   26.74
  -1  -5  16   85.97    8.41
  -1  -5  16   64.41    6.40
   6  -1  17  176.23   11.65
   0  -6 -15  359.85   22.66
   0  -6 -15  356.72   23.09
   0  -6 -14    1.06    2.38
   0  -6 -14    1.83    2.91
   0  -6 -13  454.37   31.04
   0  -6 -13  490.61   33.24
   0  -6 -12  258.87   21.22
   0  -6 -12  275.19   23.63
   0  -6 -11  230.26   19.34
   0  -6 -11  174.37   19.77
   0  -6 -10   15.36    6.21
   0  -6 -10   17.48    5.51
   0  -6 -10    4.70    5.98
   0  -6 -10   15.09   10.03
   0  -6  -9   42.21    9.18
   0  -6  -9   37.02    7.61
   0  -6  -9   28.18    9.39
   0  -6  -9   46.45   14.31
   0  -6  -8   14.93    6.28
   0  -6  -8   18.05    8.36
   0  -6  -7  134.29   15.58
   0  -6  -7  146.89   15.87
   0  -6  -7  158.90   19.47
   0  -6  -6  163.23   16.98
   0  -6  -6  150.00   15.51
   0  -6  -6  152.07   15.67
   0  -6  -5  795.98   49.32
   0  -6  -5  817.25   49.96
   0  -6  -4 1767.27   94.47
   0  -6  -4 1642.77   94.49
   0  -6  -3    8.56    3.72
   0  -6  -3   11.23    3.66
   0  -6  -3    8.91    3.86
   6   0  -3   12.76    5.13
   0  -6  -2  256.30   48.42
   6   0  -2  199.59   19.12
   0  -6  -2  222.15   17.42
   0  -6  -2  208.08   16.38
   6   0  -1   29.20    6.44
   0  -6  -1   31.73    5.10
   0  -6  -1   29.31    5.75
   0  -6   0  389.89   25.00
   6   0   0  377.57   28.38
   6   0   1   29.16    6.33
   0  -6   1   23.61   18.78
   0  -6   1   26.49    4.81
   0  -6   1   14.31    6.39
   0  -6   1   37.20    6.25
   0  -6   2  731.43   42.76
   0  -6   2  775.94   45.52
   6   0   2  718.89   45.96
   0  -6   2  662.40   83.16
   0  -6   2  631.02   48.63
   0  -6   3  121.08   12.94
   6   0   3  100.98   12.48
   0  -6   3  114.01   11.88
   0  -6   3  148.22   36.53
   0  -6   3  151.89   17.55
   6   0   4 1901.62  109.89
   6   0   4 1826.22  127.50
   0  -6   4 1948.61  108.42
   0  -6   4 2137.52  115.14
   0  -6   4 1972.90  109.70
   0  -6   5   12.13    7.72
   6   0   5   17.98    9.76
   0  -6   5   10.80    4.85
   0  -6   5   12.40    5.90
   0  -6   5   11.48    6.16
   6   0   5   12.25    5.03
   0  -6   6  306.23   26.39
   6   0   6  257.46   36.89
   0  -6   6  223.79   34.11
   6   0   6  307.51   26.20
   0  -6   6  357.90   28.55
   0  -6   7 1170.53   90.71
   0  -6   7 1248.67   74.68
   6   0   7 1129.66   96.85
   0  -6   7 1223.30   76.29
   0  -6   7 1282.40   76.63
   0  -6   8  216.87   30.88
   0  -6   8  219.63   22.30
   6   0   8  244.12   38.80
   0  -6   8  202.32   22.11
   0  -6   8  194.38   21.40
   0  -6   9  841.21   64.19
   6   0   9  526.13   67.83
   0  -6   9  622.16   48.90
   0  -6   9  867.52   50.87
   0  -6   9  659.68   50.90
   6   0  10   34.47   15.67
   0  -6  10   54.73   14.25
   0  -6  10   35.30    9.81
   0  -6  10   54.46   11.18
   0  -6  10   49.55   10.68
   0  -6  11  211.39   19.90
   0  -6  11  164.03   19.81
   0  -6  11  172.00   20.00
   0  -6  12  241.31   23.25
   0  -6  12  238.89   21.87
   0  -6  12  259.82   23.75
   0  -6  12  264.10   22.43
   0  -6  13  161.51   16.66
   0  -6  14   -0.60    3.54
   0  -6  15  374.07   22.54
   0  -6  15  285.97   21.23
   0  -6  16   50.81    5.21
   6   1 -15  165.95   13.47
   1  -7 -14  245.05   18.11
   1  -7 -13  142.88   14.03
   1  -7 -12  129.69   14.47
   1  -7 -12  112.36   11.27
   1  -7 -11   43.86    8.88
   1  -7 -11   38.95    6.75
   1  -7 -10  171.50   15.19
   1  -7 -10  116.46   16.32
   1  -7  -9  139.90   21.68
   1  -7  -9  150.10   17.86
   1  -7  -8  366.62   36.85
   1  -7  -8  397.71   44.54
   1  -7  -8  445.07   33.34
   1  -7  -7  124.95   23.97
   1  -7  -7  165.54   21.50
   1  -7  -7  173.71   17.81
   1  -7  -6  847.08   70.69
   1  -7  -6  844.43   53.65
   1  -7  -6  783.36   53.39
   1  -7  -6  956.99   60.81
   1  -7  -5   82.09   11.01
   1  -7  -5   97.27   14.72
   1  -7  -5   88.99   11.70
   6   1  -4   31.75    8.72
   1  -7  -4   31.15    7.04
   1  -7  -4   42.35    7.62
   1  -7  -4   41.12    7.36
   1  -7  -3  298.10   23.41
   1  -7  -3  344.27   23.91
   1  -7  -3  313.66   23.79
   6   1  -3  285.46   26.35
   1  -7  -2  119.10   12.31
   6   1  -2  137.66   23.16
   6   1  -2  104.44   14.04
   1  -7  -2  121.25   12.22
   1  -7  -2  128.56   12.83
   6   1  -1 1525.74  104.00
   6   1  -1 1425.78   86.76
   1  -7  -1 1512.05   82.66
   1  -7  -1 1480.33   83.03
   6   1   0  230.40   29.95
   6   1   0  192.52   19.33
   1  -7   0  199.35   17.30
   1  -7   0  219.53   17.53
   1  -7   0  194.64   16.41
   6   1   1  544.93   37.95
   1  -7   1  507.32   33.80
   1  -7   1  543.41   35.01
   6   1   1  583.25   52.32
   6   1   2  478.64   35.18
   1  -7   2  495.92   32.22
   1  -7   2  500.76   33.18
   1  -7   2  475.81   31.66
   6   1   2  527.33   50.06
   6   1   3  101.65   12.53
   1  -7   3   93.64   10.88
   6   1   3   88.04   19.16
   6   1   4  101.65   20.73
   6   1   4   88.00   12.41
   1  -7   4   86.10   11.42
   1  -7   4   72.98   12.29
   1  -7   4   95.44   12.25
   1  -7   5  157.61   18.43
   1  -7   5  149.91   15.87
   6   1   5  154.36   16.76
   1  -7   5  132.17   15.86
   1  -7   6  108.99   16.69
   1  -7   6  136.74   15.99
   1  -7   6  125.28   15.89
   1  -7   6  154.31   17.77
   1  -7   7 1808.14   99.05
   1  -7   7 1740.52   99.81
   1  -7   7 1750.84   99.03
   1  -7   8  506.56   39.28
   1  -7   8  496.13   38.10
   1  -7   8  522.12   39.84
   1  -7   8  520.01   40.55
   1  -7   9  578.47   39.22
   1  -7   9  445.59   39.54
   6   1   9  427.77   58.05
   1  -7  10   65.26   12.45
   1  -7  10   72.73   11.49
   1  -7  10   82.44   12.18
   1  -7  11   89.89   14.29
   1  -7  11  100.95   13.03
   1  -7  12  235.09   19.77
   1  -7  12  231.32   21.76
   1  -7  12  201.25   20.60
   1  -7  13   14.75    5.40
   1  -7  13   14.29    5.42
   1  -7  13   21.69    5.33
   1  -7  14  203.50   16.78
   1  -7  14  203.79   17.14
   1  -7  14  256.02   18.19
   1  -7  15  155.65   12.18
   1  -7  15  135.47   11.14
   1  -7  15  147.24   11.69
   6   2 -15   51.51    5.61
   6   2 -14   58.95    7.74
   2  -8 -13   37.24    6.12
   6   2 -13   34.88    7.31
   2  -8 -12  429.24   30.27
   2  -8 -11   80.70   11.60
   2  -8 -10  213.49   21.54
   2  -8  -9  189.96   20.36
   2  -8  -8  218.28   21.29
   2  -8  -8  148.56   22.72
   2  -8  -7  809.61   49.78
   2  -8  -7  575.21   53.58
   6   2  -6    1.35    5.61
   2  -8  -6    7.10    5.44
   2  -8  -6    3.21    6.94
   2  -8  -5  303.59   24.55
   2  -8  -5  285.74   24.84
   2  -8  -4    9.92    7.62
   2  -8  -4   11.50    5.05
   2  -8  -4    5.20    4.20
   2  -8  -3  107.71   16.96
   2  -8  -3   91.12   11.57
   2  -8  -3  108.06   12.30
   2  -8  -2   25.53    6.43
   2  -8  -2   34.32    6.76
   2  -8  -2   30.16    6.66
   2  -8  -1  464.11   32.73
   2  -8  -1  482.30   32.50
   6   2  -1  489.04   49.85
   2  -8  -1  456.99   31.64
   2  -8   0  220.53   19.27
   2  -8   0  210.11   18.59
   2  -8   0  230.36   18.02
   6   2   0  227.55   32.01
   2  -8   0  223.76   18.37
   2  -8   1 1492.13   82.75
   2  -8   1 1465.17   82.19
   2  -8   1 1346.82   80.08
   6   2   1 1515.61  105.11
   2  -8   1 1440.37   81.22
   2  -8   2  452.57   30.87
   6   2   2  417.76   45.73
   2  -8   2  400.44   29.70
   2  -8   2  388.24   28.41
   2  -8   2  423.48   30.24
   2  -8   3  306.76   31.30
   6   2   3  373.37   43.57
   2  -8   3  393.99   29.09
   2  -8   3  388.20   28.00
   2  -8   3  403.01   29.11
   2  -8   3  404.60   29.38
   6   2   4   54.21   17.62
   2  -8   4   74.78   14.01
   6   2   4   77.44   12.54
   2  -8   4   95.18   12.26
   2  -8   4   99.82   12.73
   6   2   5    9.14    8.18
   2  -8   5    7.80    6.28
   6   2   5    4.87    5.37
   2  -8   5    9.11    5.02
   2  -8   5    8.32    5.55
   6   2   6  417.41   51.52
   2  -8   6  448.77   35.39
   6   2   6  443.75   35.22
   2  -8   6  451.22   35.02
   2  -8   6  456.93   34.32
   2  -8   7   59.39   11.58
   2  -8   7   69.95   11.79
   2  -8   7   64.01   10.85
   6   2   7   50.06   17.97
   2  -8   8  313.56   26.53
   2  -8   8  320.53   29.12
   2  -8   8  351.63   27.31
   2  -8   9    3.37    4.96
   2  -8   9    6.67    5.58
   2  -8   9    7.09    6.35
   2  -8  10  449.87   31.13
   2  -8  10  498.61   32.26
   2  -8  10  370.71   33.09
   2  -8  10  323.18   32.34
   2  -8  11    7.72    5.79
   2  -8  11    4.77    4.44
   2  -8  11    1.38    4.30
   2  -8  12  218.53   18.57
   2  -8  12  225.29   20.63
   2  -8  12  256.85   21.11
   2  -8  13   96.57   10.35
   2  -8  13  101.76   11.22
   2  -8  13  105.11   11.31
   2  -8  14  101.24    9.62
   2  -8  14  116.25   10.19
   2  -8  15  112.84    9.09
   2  -8  15  128.71    9.17
   6   3 -14    0.28    1.38
   3  -9 -12   65.30    7.95
   3  -9 -11  332.14   24.62
   3  -9 -10    4.06    3.65
   3  -9  -9  251.11   22.80
   3  -9  -8   85.01   12.53
   3  -9  -7  144.25   16.61
   6   3  -6  142.43   19.37
   3  -9  -6  127.99   15.63
   6   3  -5  158.48   19.92
   3  -9  -5  114.68   20.91
   3  -9  -5  168.17   16.84
   6   3  -4  936.16   63.28
   3  -9  -4  848.86   58.19
   3  -9  -4  958.76   70.38
   3  -9  -4  999.81   58.29
   3  -9  -3  150.49   15.62
   6   3  -3  164.52   19.41
   3  -9  -3  152.32   16.57
   3  -9  -3  158.29   23.14
   3  -9  -3  139.62   14.94
   3  -9  -2  677.13   44.81
   3  -9  -2  682.77   44.38
   6   3  -2  675.27   49.02
   3  -9  -2  820.58   59.09
   3  -9  -2  701.66   46.29
   3  -9  -1   59.95    9.30
   3  -9  -1   68.52   10.38
   3  -9  -1   68.69   15.40
   6   3  -1   57.73   11.14
   3  -9  -1   58.35    9.05
   6   3   0  512.87   52.12
   3  -9   0  494.74   34.64
   3  -9   0  514.72   36.23
   3  -9   0  611.19   48.40
   6   3   0  519.75   38.96
   3  -9   0  498.68   35.13
   3  -9   0  502.10   33.96
   6   3   1   37.56   14.64
   3  -9   1   59.42    8.95
   3  -9   1   32.85   12.04
   3  -9   1   63.49    9.87
   6   3   1   50.14   10.26
   3  -9   1   54.64    9.10
   3  -9   1   58.80    8.62
   3  -9   2   56.91   14.64
   3  -9   2  132.50   14.63
   6   3   2  104.16   14.47
   6   3   2   82.29   20.46
   3  -9   2  125.70   13.77
   3  -9   2  118.62   12.61
   3  -9   3  204.16   18.67
   6   3   3  167.30   18.41
   6   3   3  162.03   28.10
   3  -9   3  152.16   16.48
   3  -9   3  148.82   15.79
   3  -9   4  835.96   55.47
   6   3   4  879.93   76.59
   6   3   4  852.75   56.69
   3  -9   4  877.57   55.37
   3  -9   4  819.14   54.20
   3  -9   4  882.86   54.57
   3  -9   4  897.84   55.71
   3  -9   5  131.10   15.51
   6   3   5  143.94   27.89
   3  -9   5  110.91   14.52
   3  -9   5  145.48   16.17
   3  -9   5  130.66   15.89
   3  -9   5  152.31   16.43
   6   3   5  134.57   16.52
   6   3   6  412.02   32.11
   3  -9   6  422.30   30.64
   3  -9   6  379.84   30.52
   3  -9   6  426.09   31.51
   3  -9   6  398.58   31.63
   3  -9   7  265.34   21.43
   3  -9   7  235.46   22.25
   3  -9   7  237.79   22.46
   3  -9   7  225.70   22.59
   3  -9   8  252.18   22.92
   3  -9   8  232.37   23.14
   3  -9   8  184.11   17.71
   3  -9   9  332.85   23.57
   3  -9   9  278.39   26.00
   3  -9  10    4.95    3.48
   3  -9  10   -0.94    4.93
   3  -9  10    0.89    3.56
   3  -9  11  302.48   21.74
   3  -9  11  289.72   23.61
   3  -9  11  304.16   24.51
   3  -9  12   10.00    3.95
   3  -9  12    1.09    3.15
   3  -9  13  124.07   10.61
   3  -9  13  108.29   10.05
   3  -9  14    1.48    1.37
   6   4 -12  159.91   13.10
   4 -10 -11   29.15    4.97
   6   4 -11   30.61    6.16
   4 -10 -10   43.50    6.84
   6   4 -10   46.36    8.75
   4 -10  -9   40.66    7.60
   6   4  -9   42.24   10.00
   4 -10  -8   45.05    8.19
   6   4  -8   44.51   10.41
   4 -10  -7   53.97    9.34
   6   4  -7   37.87   10.09
   4 -10  -6  607.52   41.66
   6   4  -6  645.90   47.32
   4 -10  -5   25.63    6.94
   6   4  -5   35.69   10.84
   4 -10  -4  421.87   30.35
   6   4  -4  385.85   33.81
   4 -10  -4  414.64   41.60
   4 -10  -3  449.10   31.62
   4 -10  -3  421.50   30.64
   6   4  -3  461.73   35.89
   4 -10  -2  178.05   17.30
   4 -10  -2  184.91   17.18
   6   4  -2  176.10   19.71
   4 -10  -2  139.38   25.30
   4 -10  -1  924.13   57.67
   4 -10  -1 1019.02   60.77
   4 -10  -1  995.68   57.76
   6   4  -1  941.88   61.68
   4 -10   0   12.89    5.67
   4 -10   0    8.63    8.21
   4 -10   0    9.86    4.86
   4 -10   0   19.16    5.94
   6   4   0   15.35    6.17
   6   4   1   63.07   11.15
   4 -10   1   54.15    9.95
   4 -10   1   34.01   12.07
   4 -10   1   53.14    9.05
   6   4   2  174.92   18.35
   4 -10   2  154.60   17.24
   4 -10   2  153.63   16.32
   4 -10   2  181.09   16.61
   6   4   3   38.32    8.71
   4 -10   3   36.10    8.36
   4 -10   3   26.25    7.57
   4 -10   3   38.60    7.60
   6   4   4   68.08   11.28
   4 -10   4   60.25   10.33
   4 -10   4   73.37   11.06
   4 -10   4   94.70   12.03
   6   4   5  427.12   30.86
   4 -10   5  469.16   31.18
   4 -10   5  413.11   29.49
   4 -10   6   51.09   10.45
   4 -10   6   48.03    9.75
   4 -10   7 1431.76   84.89
   4 -10   7 1551.71   87.37
   4 -10   7 1416.08   85.62
   4 -10   8  280.51   22.86
   4 -10   8  238.18   23.19
   4 -10   8  283.53   24.06
   4 -10   9  159.60   16.32
   4 -10   9  178.17   17.90
   4 -10   9  172.49   17.37
   4 -10  10   42.22    7.02
   4 -10  10   41.79    7.69
   4 -10  10   42.96    7.69
   4 -10  11   12.42    3.72
   4 -10  11   10.79    3.78
   4 -10  12   55.33    6.14
   4 -10  12   63.74    6.49
   6   5 -10   29.08    4.92
   5 -11  -9   75.94    8.51
   6   5  -9   96.06   10.94
   5 -11  -8    9.54    3.67
   6   5  -8   13.61    4.82
   5 -11  -7  118.74   12.66
   6   5  -7  141.35   16.05
   5 -11  -6  144.18   14.17
   6   5  -6  129.32   16.20
   5 -11  -5  186.04   17.49
   6   5  -5  233.33   21.81
   5 -11  -4   41.49    7.99
   6   5  -4   51.57    9.96
   5 -11  -3  300.87   23.51
   6   5  -3  309.46   26.42
   5 -11  -2  180.15   16.65
   6   5  -2  191.91   19.53
   5 -11  -1  385.19   28.57
   6   5  -1  412.63   31.35
 -11   6   0  140.64   13.86
   5 -11   0  150.45   14.98
   6   5   0  133.44   15.75
   5 -11   1  278.93   22.74
   6   5   1  300.59   24.53
   5 -11   2   21.52    5.86
   6   5   2   35.24    7.80
   5 -11   3   85.48   10.88
   6   5   3   66.94   10.47
   5 -11   4   32.71    7.28
   5 -11   4   32.58    7.14
   6   5   4   34.88    7.52
   5 -11   5   48.59    8.81
   5 -11   5   51.36    8.75
   5 -11   6  695.99   44.79
   5 -11   6  686.65   44.28
   5 -11   7   10.55    4.65
   5 -11   7    8.10    4.07
   5 -11   8  267.06   21.67
   5 -11   8  276.98   21.54
   5 -11   9   44.21    6.82
   5 -11   9   43.69    6.65
   5 -11  10  143.53   11.67
   5 -11  10  152.90   11.82
   6   6  -7   53.02    6.73
   6   6  -6   92.60   10.16
   6   6  -5    8.50    3.88
 -12   6  -4  300.09   23.33
   6   6  -4  335.86   24.16
 -12   6  -3  127.44   13.01
   6   6  -3  138.22   13.72
 -12   6  -2  230.82   18.44
   6   6  -2  228.88   19.23
 -12   6  -1  249.33   18.90
   6   6  -1  244.41   19.93
   6   6   0  599.33   38.50
   6 -12   1   31.25    6.13
   6   6   1   30.94    6.13
   6 -12   2  217.69   17.64
   6   6   2  205.05   17.51
   6 -12   3  317.12   23.16
   6 -12   4  328.40   23.64
   6 -12   5  150.18   13.70
   6 -12   6   63.31    8.08
   6 -12   7   22.03    4.17
   6 -12   8  171.89   12.43
   5   7  -6   43.33    6.02
 -12   5  -5  157.39   14.80
   5   7  -5  144.90   13.00
 -12   5  -4   39.99    7.24
   5   7  -4   35.77    6.18
 -12   5  -3  278.68   20.83
   5   7  -3  224.40   18.72
 -12   5  -2   53.86    7.92
   5   7  -2   42.02    7.01
 -12   5  -1  295.71   22.09
   5   7  -1  298.22   21.88
 -12   5   0   52.91    7.78
   5   7   0   64.33    8.23
 -12   5   1  416.17   27.59
   5   7   1  431.56   28.35
   7 -12   1  429.13   28.85
   7 -12   2  859.91   51.09
   7 -12   3   87.45   10.01
   7 -12   4  156.87   14.11
   7 -12   5    6.18    3.10
   7 -12   6   12.66    3.66
   7 -12   7    0.37    1.70
   4   7  -9   64.97    7.31
   4   7  -8  171.53   14.54
   7 -11  -8  130.70   12.53
   4   7  -7   29.70    6.34
   7 -11  -7   27.12    5.66
   4   7  -6  213.65   19.30
   7 -11  -6  213.83   18.03
   4   7  -5  198.42   18.95
   7 -11  -5  218.75   18.22
   4   7  -4  459.02   33.33
   7 -11  -4  469.24   31.93
   4   7  -3   34.15    7.50
   7 -11  -3   38.71    7.06
 -11   4  -2  130.08   14.61
   4   7  -2  113.76   13.48
 -11   4  -1   34.73    8.33
   7 -11  -1   55.34    8.53
   4   7  -1   50.80    8.50
 -11   4   0  643.43   41.69
   7 -11   0  631.78   40.53
   4   7   0  598.02   40.43
 -11   4   1   67.51   10.21
   4   7   1   77.39   10.30
 -11   4   2  508.79   35.18
   4   7   2  512.86   35.11
   7 -11   2  571.06   36.20
   4   7   3   13.81    4.90
 -11   4   3   17.76    5.66
   7 -11   3   20.14    5.83
 -11   4   4  267.08   20.56
   7 -11   4  296.30   22.95
   7 -11   5   16.29    5.30
   7 -11   6   21.83    6.53
   7 -11   6   34.07    6.97
   7 -11   7   60.93    9.06
   7 -11   8   56.41    8.28
   7 -11   9  349.34   23.42
   7 -11  10   20.07    3.54
   3   7 -11    1.05    2.02
   3   7 -10   91.67   10.44
   7 -10 -10   96.44    9.65
   3   7  -9    7.84    4.32
   7 -10  -9    3.69    3.14
   3   7  -8  360.86   27.75
   7 -10  -8  283.93   24.02
   3   7  -7    5.86    5.51
   7 -10  -7    6.89    4.78
   3   7  -6  831.38   56.00
   7 -10  -6  884.72   54.06
   3   7  -5   71.45   12.02
   7 -10  -5   95.58   11.93
   3   7  -4  112.05   14.27
   7 -10  -4  106.41   12.58
   3   7  -3  217.38   21.05
   7 -10  -3  242.74   20.27
   3   7  -2   19.68    6.32
   7 -10  -2   18.31    5.56
   7 -10  -2   20.98    5.90
   7 -10  -1  399.94   28.60
   3   7  -1  386.66   29.54
   7 -10  -1  379.90   28.00
   7 -10   0   26.52    6.48
 -10   3   0   19.99    6.73
   3   7   0   18.40    6.00
 -10   3   0   25.86    5.62
   7 -10   1  192.52   17.66
 -10   3   1  169.50   18.02
   3   7   1  193.85   17.70
 -10   3   1  183.57   16.35
   7 -10   2  283.40   22.62
 -10   3   2  285.01   23.67
   3   7   2  262.61   21.70
 -10   3   2  245.14   20.50
   3   7   3  335.08   25.36
   7 -10   3  318.70   25.79
   7 -10   3  358.34   27.37
 -10   3   3  320.25   26.29
   7 -10   4   -0.80    4.19
 -10   3   4   -2.27    4.81
   7 -10   5  268.48   23.15
 -10   3   5  258.79   21.52
   7 -10   6  121.01   14.64
 -10   3   6  105.03   12.10
   7 -10   7  261.06   23.91
   7 -10   7  299.77   25.31
   7 -10   8   78.76   11.56
   7 -10   8   84.82   12.29
   7 -10   9   92.32   11.87
   7 -10   9  101.93   12.30
   7 -10  10   16.13    4.58
   7 -10  10   12.13    4.64
   7 -10  11   42.30    5.86
   7 -10  11   48.92    6.15
   2   7 -12  195.77   15.11
   2   7 -11  159.01   15.27
   7  -9 -11  162.59   14.06
   2   7 -10   98.69   13.05
   7  -9 -10   87.02   10.95
   2   7  -9  214.15   21.84
   7  -9  -9  172.12   18.63
  -9   2  -9  246.94   19.71
   2   7  -8   87.61   13.35
   7  -9  -8   75.38   11.21
  -9   2  -8   50.53    9.51
   2   7  -7  427.29   34.85
   7  -9  -7  457.11   32.92
  -9   2  -7  409.99   32.02
   2   7  -6   30.51    8.84
   7  -9  -6   37.85    8.07
   2   7  -5  234.68   23.09
   7  -9  -5  268.81   22.23
  -9   2  -5  244.67   20.13
   2   7  -4  173.47   18.12
   7  -9  -4  152.63   15.79
  -9   2  -4  146.05   14.55
   7  -9  -3  328.75   25.17
  -9   2  -3  328.51   23.97
   2   7  -3  293.94   25.75
   7  -9  -3  303.62   24.31
  -9   2  -2   40.31    7.20
   7  -9  -2   41.57    7.81
   2   7  -2   49.36    8.46
   7  -9  -2   33.94    6.75
   7  -9  -1  398.73   28.43
   7  -9  -1  379.14   27.78
  -9   2  -1  388.20   27.84
   2   7  -1  378.75   28.84
   7  -9   0  180.35   16.60
   7  -9   0  192.06   16.75
  -9   2   0  156.65   15.77
   2   7   0  174.51   16.81
   7  -9   1  330.77   26.01
  -9   2   1  378.64   29.13
   2   7   1  341.33   25.96
  -9   2   2  504.17   36.26
   7  -9   2  472.89   33.72
  -9   2   3   94.71   13.87
   7  -9   3  126.95   14.12
   7  -9   3  137.62   15.45
   7  -9   4  149.21   15.96
  -9   2   4  124.90   15.54
   7  -9   4  134.74   15.35
   7  -9   4  164.15   17.31
   7  -9   5   60.05   10.26
  -9   2   5   71.50   10.83
   7  -9   5   67.45   10.77
   7  -9   5   52.11   10.38
   7  -9   6  220.41   22.21
  -9   2   6  266.74   22.77
   7  -9   6  246.49   23.12
   7  -9   6  294.36   25.30
  -9   2   7   17.57    6.20
   7  -9   7   17.65    5.68
   7  -9   7   15.23    5.78
   7  -9   7   15.57    6.46
   7  -9   7   28.50    8.16
   7  -9   8  402.67   31.53
   7  -9   8  334.88   30.41
   7  -9   8  327.40   27.86
   7  -9   8  332.38   29.17
   7  -9   9   11.64    5.50
   7  -9   9   16.30    6.13
   7  -9   9   13.73    5.08
   7  -9   9   14.52    5.38
   7  -9  10  422.95   31.84
   7  -9  10  490.12   32.37
   7  -9  10  435.82   30.28
   7  -9  10  364.92   29.48
   7  -9  11   43.20    7.35
   7  -9  11   47.62    7.26
   7  -9  11   33.43    6.21
   7  -9  12  107.91   10.46
   7  -9  12  107.13    9.81
   7  -9  13  117.58    9.05
   1   7 -13  227.36   17.21
   7  -8 -13  276.59   18.42
  -8   1 -13  232.88   16.28
   1   7 -12   26.38    6.00
   7  -8 -12   37.75    7.13
  -8   1 -12   36.23    6.05
   7  -8 -12   29.83    5.41
   7  -8 -11  984.36   59.54
  -8   1 -11  975.81   57.69
   7  -8 -11  902.12   56.74
  -8   1 -10   17.74    6.51
   7  -8 -10   14.70    6.69
   7  -8 -10   10.89    4.97
   7  -8 -10   11.41    5.18
  -8   1  -9  188.76   20.23
   7  -8  -9  200.74   20.98
   7  -8  -9  185.28   18.91
   7  -8  -9  140.98   16.66
  -8   1  -8  625.96   43.06
   7  -8  -8  625.08   43.94
   7  -8  -8  600.62   41.50
   7  -8  -8  494.07   39.04
   1   7  -7  142.26   17.14
   7  -8  -7  121.09   15.96
   7  -8  -7  117.63   14.50
   7  -8  -7  101.97   13.44
   7  -8  -6  142.13   15.47
   1   7  -6  145.67   17.30
  -8   1  -6  135.62   14.71
   7  -8  -6  127.58   16.38
   7  -8  -6  115.82   14.28
  -8   1  -5  258.47   21.63
   7  -8  -5  255.61   21.88
   7  -8  -5  300.47   24.70
   1   7  -5  234.41   22.87
  -8   1  -4  344.45   26.02
   7  -8  -4  336.76   25.82
   7  -8  -3  916.19   56.15
  -8   1  -3  931.17   56.30
  -8   1  -3  934.98   73.95
   7  -8  -3  918.22   55.47
   7  -8  -2  168.46   15.31
   7  -8  -2  172.64   15.83
  -8   1  -2  147.96   15.32
   7  -8  -1    4.24    3.17
  -8   1  -1    1.43    3.44
   7  -8  -1    4.50    4.01
   7  -8   0 1601.83   89.37
   7  -8   0 1607.39   89.93
   7  -8   1  581.74   38.07
   7  -8   1  660.50   40.52
  -8   1   1  520.93   39.88
   7  -8   2  752.81   48.93
   7  -8   2  768.82   47.79
   7  -8   2  770.98   49.09
  -8   1   2  765.67   50.50
   7  -8   3  294.49   24.37
   7  -8   3  271.32   22.54
   7  -8   3  285.92   23.96
  -8   1   3  280.02   24.58
   7  -8   4  283.01   25.22
   7  -8   4  296.16   24.44
   7  -8   4  329.94   26.41
  -8   1   4  312.12   26.25
   7  -8   5  178.28   16.59
   7  -8   5  167.25   18.58
   7  -8   5  188.48   18.43
   7  -8   5  197.51   19.59
  -8   1   5  157.17   17.85
   7  -8   6  138.92   15.26
   7  -8   6  127.48   16.51
   7  -8   6  139.97   16.35
   7  -8   6  148.17   17.46
  -8   1   6  136.81   16.24
   7  -8   7   24.92    7.03
   7  -8   7   40.34    9.82
   7  -8   7   38.17    8.69
   7  -8   7   34.65    8.68
  -8   1   7   37.04    9.32
   7  -8   8  415.93   33.66
   7  -8   8  341.16   30.95
   7  -8   8  426.18   32.80
  -8   1   8  450.01   31.74
   7  -8   9  769.97   51.33
  -8   1   9  947.27   53.93
   7  -8   9  799.29   54.90
   7  -8   9  606.49   50.45
   7  -8   9  746.52   53.02
   7  -8  10   76.79   11.40
   7  -8  10   54.48   10.70
   7  -8  10   46.10    7.99
   7  -8  10   53.81   11.05
  -8   1  10   61.42   10.06
   7  -8  10   83.12   11.50
   7  -8  11  542.00   40.92
   7  -8  11  571.25   40.53
   7  -8  11  644.56   40.00
   7  -8  11  611.14   39.86
   7  -8  12   -1.39    3.34
   7  -8  12   -0.60    2.89
   7  -8  12    5.90    3.12
   7  -8  12   -1.70    3.33
   7  -8  13   85.85    9.64
   7  -8  13   83.57    8.93
   7  -8  13   86.60    8.16
   7  -8  14   41.99    4.99
   7  -7 -15   92.45    7.87
   7  -7 -14  288.90   19.82
  -7   0 -14  264.54   18.62
   7  -7 -13  149.76   14.55
   7  -7 -13  138.59   12.11
  -7   0 -13  148.44   13.56
   7  -7 -12  254.59   20.85
   7  -7 -12  308.92   24.60
   7  -7 -11   33.81    9.20
   7  -7 -11   22.79    6.37
  -7   0 -11   45.73    9.20
   7  -7 -10  281.64   27.92
   7  -7 -10  267.98   25.13
  -7   0 -10  341.87   29.20
   7  -7  -9  128.97   17.89
   7  -7  -9  133.12   16.07
  -7   0  -9  138.75   18.06
   7  -7  -8  517.71   39.48
   7  -7  -8  436.58   34.41
  -7   0  -8  466.30   36.97
   7  -7  -7  107.54   15.25
   7  -7  -7   83.65   12.17
  -7   0  -7   80.65   12.00
   7  -7  -6  709.49   48.91
  -7   0  -6  671.70   45.11
   7  -7  -6  686.88   44.87
   7  -7  -5   22.14    6.15
   7  -7  -5   13.37    8.58
   7  -7  -5   16.56    7.34
   7  -7  -5   12.79    5.85
  -7   0  -5   13.06    5.27
   7  -7  -4  280.98   21.25
   7  -7  -4  266.00   23.49
   7  -7  -4  284.41   30.32
  -7   0  -4  258.38   21.95
   7  -7  -4  254.59   22.66
   7  -7  -3   46.45    7.67
   7  -7  -3   53.19   14.81
   7  -7  -3   43.08    7.93
   7  -7  -3   60.47    8.12
  -7   0  -3   65.88   15.93
   7  -7  -3   53.56    9.11
  -7   0  -3   51.63    8.49
   7  -7  -2   64.52    9.62
   7  -7  -2   65.50    8.81
   7  -7  -2   63.71   16.07
  -7   0  -2   77.62   16.43
   7  -7  -2   76.63    8.87
  -7   0  -2   61.53    9.36
   7  -7  -1  553.71   38.02
   7  -7  -1  590.70   36.76
   7  -7  -1  583.16   52.50
   7  -7  -1  575.21   36.03
  -7   0  -1  622.84   50.25
   7  -7   0   22.92    4.89
   7  -7   0   26.90    6.15
  -7   0   0   21.79    7.80
   7  -7   0   31.18   14.44
   7  -7   0   25.57    5.27
  -7   0   1  873.53   55.70
   7  -7   1  899.42   54.40
   7  -7   1  881.18   52.33
   7  -7   1  897.41   54.07
   7  -7   1  863.40   54.55
   7  -7   2   68.01    8.86
   7  -7   2   63.57    9.48
   7  -7   2   67.22   10.03
   7  -7   2   74.23   16.72
  -7   0   2   54.77   10.16
   7  -7   3  496.87   34.03
   7  -7   3  515.40   35.49
   7  -7   3  504.60   36.41
   7  -7   3  593.86   48.37
  -7   0   3  516.53   36.90
   7  -7   4   48.51    8.15
   7  -7   4   49.09    8.87
   7  -7   4   44.14    9.14
   7  -7   4   50.62   13.35
  -7   0   4   45.32    9.41
   7  -7   5  110.39   17.67
   7  -7   5  104.81   14.62
   7  -7   5  116.01   13.05
   7  -7   5  103.62   12.75
   7  -7   5  109.20   13.86
  -7   0   5  112.25   14.40
   7  -7   6   22.61    8.14
   7  -7   6   30.89    7.39
   7  -7   6   31.72    7.40
   7  -7   6   27.39    8.44
  -7   0   6   23.41    7.98
   7  -7   7  188.75   22.22
   7  -7   7  159.97   19.07
   7  -7   7  190.05   20.65
   7  -7   7  227.22   21.36
  -7   0   7  241.11   22.13
   7  -7   8  151.63   19.21
   7  -7   8  100.67   14.84
   7  -7   8  125.04   15.79
  -7   0   8  141.73   16.99
   7  -7   9  233.72   25.27
  -7   0   9  254.27   23.60
   7  -7   9  252.55   22.85
   7  -7   9  208.69   22.12
   7  -7  10    4.95    3.85
  -7   0  10    5.52    5.93
   7  -7  10   15.22    6.05
   7  -7  10    2.93    4.99
   7  -7  10    8.88    5.50
   7  -7  10    4.75    4.12
   7  -7  11  289.80   22.96
   7  -7  11  208.75   19.77
   7  -7  11  225.04   24.68
   7  -7  11  256.42   21.40
   7  -7  11  236.96   22.50
  -7   0  11  247.42   21.83
   7  -7  12  246.21   19.94
   7  -7  12  197.59   17.37
   7  -7  12  253.35   23.04
   7  -7  12  199.36   19.08
   7  -7  12  238.95   18.20
  -7   0  12  217.22   17.89
   7  -7  13   47.09    7.22
   7  -7  13   33.97    6.11
   7  -7  13   35.63    7.32
   7  -7  14  357.04   21.36
   7  -7  14  327.39   22.24
   7  -7  15    7.97    2.38
  -6  -1 -15  152.09   12.15
  -6  -1 -14  243.25   18.81
  -6  -1 -13   11.74    4.94
   7  -6 -12  190.94   16.90
  -6  -1 -11   93.66   14.09
   7  -6 -11   62.49   10.19
  -6  -1 -10   64.41   12.79
   7  -6 -10   25.21    7.20
  -6  -1  -9  576.96   40.06
   7  -6  -9  440.79   33.71
  -6  -1  -8  498.15   37.98
  -6  -1  -8  381.09   47.76
   7  -6  -8  470.67   34.13
   7  -6  -7 1809.24   94.16
  -6  -1  -7 1578.10  113.37
   7  -6  -7 1428.18   95.99
  -6  -1  -7 1646.57   94.88
   7  -6  -6  134.42   13.78
   7  -6  -6  122.52   17.21
  -6  -1  -6  129.24   14.77
   7  -6  -5  160.22   14.34
   7  -6  -5  148.64   19.80
  -6  -1  -5  140.34   15.23
   7  -6  -4   80.82    9.17
  -6  -1  -4   95.92   21.11
   7  -6  -4  101.24   16.39
  -6  -1  -4   71.74   10.31
  -6  -1  -3   83.87   10.95
   7  -6  -3   72.40   10.86
   7  -6  -3   94.83    9.54
   7  -6  -3   95.96   17.25
  -6  -1  -2  486.68   33.38
   7  -6  -2  551.31   46.22
   7  -6  -2  454.92   33.58
  -6  -1  -2  520.52   47.18
   7  -6  -2  492.98   30.51
   7  -6  -1  597.61   51.06
  -6  -1  -1  639.62   50.10
   7  -6  -1  554.24   33.87
   7  -6  -1  535.19   37.24
   7  -6   0  203.38   18.03
   7  -6   0  195.38   14.84
   7  -6   0  138.45   23.84
  -6  -1   0  200.97   24.43
  -6  -1   0  203.94   18.58
  -6  -1   1 1495.59   95.93
   7  -6   1 1557.66   85.91
   7  -6   1 1521.40   87.29
   7  -6   2  135.90   21.44
   7  -6   2  123.65   12.52
   7  -6   2  122.01   13.54
  -6  -1   3  341.54   27.25
   7  -6   3  330.87   25.41
  -6  -1   4   41.96    8.62
   7  -6   4   38.81    6.65
   7  -6   4   42.72    7.70
   7  -6   4   48.46   12.09
  -6  -1   5   97.89   13.34
   7  -6   5  102.59   11.77
   7  -6   5   93.05   11.93
   7  -6   5   81.70   15.53
  -6  -1   6  840.08   54.70
   7  -6   6  816.01   53.31
   7  -6   6  873.69   52.95
   7  -6   6  810.35   57.99
  -6  -1   7  168.89   18.89
   7  -6   7  158.47   17.33
   7  -6   7  165.96   17.35
   7  -6   7  150.73   19.09
   7  -6   8  486.77   35.33
  -6  -1   8  513.53   37.66
   7  -6   9  152.21   17.54
  -6  -1   9  179.82   19.94
   7  -6  10  148.98   16.78
  -6  -1  10  180.94   20.88
  -6  -1  11   38.82    9.17
   7  -6  11   43.78    8.71
   7  -6  11   36.91    8.74
   7  -6  11   42.81    7.79
   7  -6  12  153.22   15.44
   7  -6  12  143.93   14.78
  -6  -1  12  114.26   12.35
  -6  -1  12  134.91   14.71
   7  -6  13  159.27   14.89
   7  -6  13  143.91   13.82
  -6  -1  13  147.24   13.45
  -6  -1  13  140.81   12.54
  -6  -1  14  219.03   16.18
   7  -6  14  273.91   18.80
   7  -6  15  213.75   15.21
   7  -5 -16    8.49    2.57
  -5  -2 -16    5.39    2.15
   7  -5 -15   69.99    8.30
  -5  -2 -15   75.02    8.39
   7  -5 -14    1.30    3.81
  -5  -2 -14    0.60    3.69
   7  -5 -13   70.14   11.01
  -5  -2 -13   52.30    9.53
   7  -5 -12    5.47    6.17
   7  -5 -11  634.03   48.78
  -5  -2 -11  674.51   48.34
   7  -5 -10   45.59   12.63
  -5  -2 -10   84.26   20.85
  -5  -2 -10   80.35   22.03
  -5  -2 -10   65.59   12.77
   7  -5  -9  996.59   65.40
  -5  -2  -9 1092.26   88.60
  -5  -2  -9  979.75   63.77
   7  -5  -8  500.68   40.70
  -5  -2  -8  435.57   52.66
  -5  -2  -8  513.47   39.11
  -5  -2  -7   63.03   10.71
  -5  -2  -7   41.01   17.59
   7  -5  -7   56.31   10.83
   7  -5  -7   53.52   11.57
  -5  -2  -7   96.59   21.16
  -5  -2  -7   85.82   21.61
   7  -5  -6   76.04   13.08
  -5  -2  -6   78.73   11.27
  -5  -2  -6  117.18   25.09
   7  -5  -6   77.90   12.95
   7  -5  -5   68.24   12.77
   7  -5  -5   68.43   11.29
  -5  -2  -5   67.99   19.06
  -5  -2  -5   64.41    9.90
   7  -5  -4  328.84   30.99
   7  -5  -4  286.41   24.37
  -5  -2  -4  314.37   38.38
  -5  -2  -4  283.77   23.21
   7  -5  -3  125.77   18.63
   7  -5  -3   85.07   11.30
  -5  -2  -3   96.80   20.16
  -5  -2  -3   80.09   10.38
  -5  -2  -2  203.73   17.54
   7  -5  -2  179.03   17.95
   7  -5  -2  197.59   18.03
   7  -5  -2  264.28   28.38
  -5  -2  -2  198.80   26.86
  -5  -2  -1  329.50   34.00
   7  -5  -1  348.37   35.53
  -5  -2  -1  329.01   24.89
   7  -5  -1  289.25   24.00
  -5  -2   0 2339.14  134.41
  -5  -2   0 2298.91  122.21
   7  -5   0 2379.16  121.98
   7  -5   0 2173.52  121.74
  -5  -2   1   20.97    7.89
  -5  -2   1   23.24    6.10
   7  -5   1   15.15    5.34
   7  -5   1   16.13    5.06
  -5  -2   2  788.34   49.76
   7  -5   2  779.85   49.59
   7  -5   2  924.10   63.47
   7  -5   2  806.78   49.99
   7  -5   2  753.52   46.62
   7  -5   3  248.76   18.95
   7  -5   3  291.67   29.74
   7  -5   3  220.71   20.75
   7  -5   4  605.67   39.30
   7  -5   4  644.18   43.32
   7  -5   4  690.80   50.51
   7  -5   5   13.32    4.28
  -5  -2   5   13.60    6.06
   7  -5   5   11.73    7.19
   7  -5   5    6.92    5.33
  -5  -2   6  129.87   15.98
   7  -5   6  126.24   17.22
   7  -5   6  125.72   16.97
  -5  -2   7   57.54   11.06
   7  -5   7   54.14   10.56
   7  -5   7   45.19   11.05
  -5  -2   8  390.43   34.30
   7  -5   8  450.40   38.74
  -5  -2   9  535.74   44.26
   7  -5   9  656.35   50.67
  -5  -2  10  168.31   20.16
   7  -5  10  123.82   20.58
  -5  -2  10  173.51   19.14
  -5  -2  10  119.73   29.73
  -5  -2  11  761.20   47.78
  -5  -2  11  756.96   48.10
  -5  -2  11  770.39   51.66
   7  -5  11  695.38   56.27
  -5  -2  12   24.32    6.10
   7  -5  12   38.10   10.19
  -5  -2  12   28.04    7.47
  -5  -2  13  225.61   19.32
   7  -5  13  277.81   24.40
  -5  -2  13  216.81   18.06
  -5  -2  14    8.36    3.50
   7  -5  14    7.76    4.47
  -5  -2  14    5.78    3.30
   7  -5  14    5.83    3.44
   7  -5  15   93.44   10.07
  -5  -2  15   82.60    7.94
  -4  -3 -16   32.34    4.54
   7  -4 -16   34.09    4.47
  -4  -3 -15    9.91    3.57
   7  -4 -15    9.20    3.77
   7  -4 -14   87.52   10.85
   7  -4 -13   59.59   10.38
   7  -4 -12  216.30   22.51
   7  -4 -11  103.25   16.14
  -4  -3 -10 1216.90   85.05
   7  -4 -10  639.42   54.29
   7  -4  -9   16.71    7.68
  -4  -3  -9    6.71    9.02
   7  -4  -9   15.98    8.99
  -4  -3  -8  301.02   44.80
   7  -4  -8  415.18   34.01
   7  -4  -8  357.32   38.45
  -4  -3  -8  392.97   32.20
  -4  -3  -7   99.90   25.74
   7  -4  -7  165.75   18.66
   7  -4  -7  132.79   21.66
  -4  -3  -6    7.28    9.86
   7  -4  -6   33.71    8.04
   7  -4  -6   29.66    8.45
   7  -4  -6   37.59   11.46
   7  -4  -5   19.34    8.71
   7  -4  -5   11.09    5.47
  -4  -3  -5   16.37   13.01
  -4  -3  -5   17.19   11.42
   7  -4  -5   17.00    7.03
  -4  -3  -4  270.73   22.05
   7  -4  -4  291.77   32.21
   7  -4  -4  337.06   30.17
  -4  -3  -4  391.82   54.26
  -4  -3  -4  311.85   38.00
  -4  -3  -4  228.18   21.63
   7  -4  -4  295.62   23.42
   7  -4  -3  106.95   17.79
   7  -4  -3   93.75   11.74
  -4  -3  -3  116.16   21.21
  -4  -3  -3  113.18   12.78
  -4  -3  -3  108.33   11.69
  -4  -3  -2  803.20   61.99
   7  -4  -2  745.32   47.38
  -4  -3  -2  789.51   48.40
  -4  -3  -2  755.32   46.70
  -4  -3  -1  815.29   48.08
  -4  -3  -1  709.16   45.63
  -4  -3  -1  764.65   59.54
   7  -4   0  241.66   20.12
  -4  -3   0  262.67   28.81
  -4  -3   0  263.74   21.18
   7  -4   1 1118.32   66.45
   7  -4   1 1105.86   74.89
  -4  -3   1 1177.64   67.39
   7  -4   2   12.65    4.70
   7  -4   2    1.39    3.75
  -4  -3   2    5.05    4.42
   7  -4   3  259.75   22.52
   7  -4   3  267.96   28.00
  -4  -3   3  295.41   23.22
   7  -4   4   60.95   10.11
  -4  -3   4   65.72   10.39
   7  -4   4   60.97   12.97
  -4  -3   5  100.79   28.99
   7  -4   5  135.90   15.47
   7  -4   5  134.44   18.22
   7  -4   5  107.07   18.20
  -4  -3   6  480.94   59.23
   7  -4   6  478.03   37.59
   7  -4   6  509.53   37.70
  -4  -3   6  450.93   35.43
   7  -4   6  419.90   42.57
  -4  -3   7  837.82   82.30
  -4  -3   7  902.72   61.37
   7  -4   7 1091.37   65.54
   7  -4   7  883.30   60.09
  -4  -3   8   35.84   10.61
   7  -4   8   54.32   12.44
   7  -4   9 1072.31   68.32
  -4  -3   9  770.16   59.65
  -4  -3  10  352.03   27.27
  -4  -3  10  358.99   30.46
  -4  -3  10  290.91   28.27
   7  -4  10  261.62   31.63
  -4  -3  11  185.60   18.67
  -4  -3  11  190.80   20.67
  -4  -3  11  214.45   20.91
   7  -4  11  203.01   25.00
  -4  -3  12  616.22   41.57
  -4  -3  12  623.52   43.27
  -4  -3  12  696.45   42.82
   7  -4  12  628.12   48.31
  -4  -3  13   17.83    5.44
   7  -4  13   20.92    7.14
  -4  -3  13   11.97    5.27
  -4  -3  13   15.27    4.60
   7  -4  14  179.22   17.17
  -4  -3  14  153.94   13.85
  -4  -3  15   34.59    5.68
   7  -4  15   29.67    5.62
  -4  -3  15   37.19    5.36
  -3  -4 -16  394.99   22.91
   7  -3 -16  349.08   21.52
  -3  -4 -15  257.50   19.00
   7  -3 -15  272.44   18.73
   7  -3 -14  225.96   17.64
  -3  -4 -14  175.11   16.24
   7  -3 -13   35.11    7.80
  -3  -4 -13   16.17    5.65
   7  -3 -12  283.62   25.38
   7  -3 -11   20.14    7.85
  -3  -4 -11   19.10    7.30
   7  -3 -10   44.78   11.20
   7  -3 -10   58.36   15.09
  -3  -4 -10   67.30   11.80
  -3  -4 -10   84.78   20.83
   7  -3  -9  429.78   42.61
  -3  -4  -9  515.49   53.45
   7  -3  -9  403.48   34.17
   7  -3  -8  301.37   36.36
  -3  -4  -8  325.47   44.56
  -3  -4  -8  406.77   30.35
   7  -3  -8  337.82   29.26
  -3  -4  -8  263.85   27.25
  -3  -4  -7 1402.43  114.49
   7  -3  -7 1581.70  108.17
   7  -3  -7 1676.36   93.31
  -3  -4  -7 1663.11   93.14
   7  -3  -6   25.53    7.67
  -3  -4  -6   17.64   11.24
   7  -3  -6   13.89    8.38
  -3  -4  -6    9.31    8.37
  -3  -4  -6   21.71    5.81
   7  -3  -5  198.77   18.68
  -3  -4  -5  204.12   18.07
  -3  -4  -5  208.66   37.97
  -3  -4  -4   73.96   24.76
  -3  -4  -4   72.88    8.68
   7  -3  -4   74.68   10.20
  -3  -4  -4   71.42    9.62
  -3  -4  -4   81.47   18.63
  -3  -4  -3   38.70   19.33
  -3  -4  -3   41.21    6.26
  -3  -4  -3   41.57   12.72
  -3  -4  -3   31.53    6.66
  -3  -4  -3   36.08    6.57
   7  -3  -3   35.28    6.58
   7  -3  -2   22.66    5.91
  -3  -4  -2   21.49   18.27
  -3  -4  -2   26.47    5.50
   7  -3  -2   23.27    5.54
  -3  -4  -2   29.55   10.90
  -3  -4  -2   25.28    6.20
  -3  -4  -1 1123.37   62.49
  -3  -4  -1  991.94   59.31
   7  -3  -1  997.82   61.77
   7  -3   0    9.58    6.37
   7  -3   0    8.03    3.85
  -3  -4   0   12.86    5.17
   7  -3   0   11.00    4.11
  -3  -4   0   12.93   19.01
   7  -3   1 1802.44  112.65
   7  -3   1 1734.31  101.14
  -3  -4   1 1898.65  102.14
  -3  -4   1 1786.27  158.57
   7  -3   1 1811.86  100.12
   7  -3   2  180.32   23.47
   7  -3   2  165.07   16.59
  -3  -4   2  184.52   17.52
  -3  -4   2  221.17   45.48
   7  -3   2  172.74   16.09
   7  -3   3   53.73    8.60
   7  -3   3   82.38   15.49
  -3  -4   3   58.57    8.21
  -3  -4   3   72.07   10.73
  -3  -4   3   61.89   24.17
   7  -3   3   66.27    9.93
  -3  -4   4  365.33   25.86
  -3  -4   4  355.49   28.72
   7  -3   4  375.78   37.67
   7  -3   4  333.51   26.79
  -3  -4   4  434.07   58.55
  -3  -4   5   82.74   10.51
  -3  -4   5   88.99   13.37
   7  -3   5   71.97   16.03
   7  -3   5   88.95   12.23
  -3  -4   5  101.87   27.75
  -3  -4   6 1464.60   83.34
   7  -3   6 1438.87  102.47
  -3  -4   6 1319.78   86.80
   7  -3   6 1562.43   87.42
  -3  -4   6 1393.87  115.80
   7  -3   7   -2.72    7.30
  -3  -4   7    3.25    4.88
  -3  -4   7   10.32    9.23
   7  -3   7    6.31    4.73
   7  -3   7    5.72    6.29
   7  -3   8  456.36   52.54
  -3  -4   8  400.50   37.69
   7  -3   8  604.03   43.05
  -3  -4   8  532.01   36.69
  -3  -4   9  289.32   43.54
   7  -3   9  312.13   41.92
  -3  -4   9  263.42   25.37
  -3  -4   9  348.70   29.60
   7  -3   9  340.36   31.64
  -3  -4   9  258.49   24.68
  -3  -4  10  216.17   25.11
  -3  -4  10  302.25   42.36
   7  -3  10  195.64   26.14
  -3  -4  10  305.42   25.08
  -3  -4  10  330.22   27.24
  -3  -4  10  248.99   23.18
  -3  -4  11   22.35    8.31
  -3  -4  11   20.50    5.66
  -3  -4  11   12.92    6.17
  -3  -4  11   15.12    6.67
   7  -3  11   17.07    7.49
  -3  -4  12  152.54   16.24
  -3  -4  12  155.71   16.83
   7  -3  12  176.61   20.12
  -3  -4  12  160.00   16.71
  -3  -4  13  334.53   25.42
  -3  -4  13  321.07   25.72
  -3  -4  13  381.04   26.00
   7  -3  13  322.22   28.01
   7  -3  14  195.69   18.46
  -3  -4  14  240.28   18.69
  -3  -4  14  210.18   17.22
  -3  -4  15  258.24   18.22
  -3  -4  15  245.38   17.44
   7  -3  15  231.06   18.18
   7  -3  16  169.89   12.32
  -2  -5 -16   10.50    2.16
  -2  -5 -15  584.89   32.26
   7  -2 -15  495.20   30.29
  -2  -5 -14   -0.50    2.52
   7  -2 -14    2.26    2.82
  -2  -5 -13   82.49   10.31
   7  -2 -13   78.93   10.01
  -2  -5 -12    7.86    4.14
   7  -2 -12    9.81    4.82
   7  -2 -11   31.02    8.29
  -2  -5 -10    8.18    6.54
   7  -2 -10   -2.27    7.19
  -2  -5 -10    7.60    5.26
  -2  -5 -10    1.90    4.56
   7  -2 -10   -6.99    6.98
  -2  -5  -9  381.72   45.53
  -2  -5  -9  446.91   35.67
   7  -2  -9  411.56   43.60
  -2  -5  -9  341.90   30.54
   7  -2  -9  360.99   31.16
  -2  -5  -8  188.37   20.27
  -2  -5  -8  169.23   30.55
  -2  -5  -8  110.96   16.37
   7  -2  -8  161.08   18.10
   7  -2  -8  158.15   25.98
  -2  -5  -7 1349.43   87.31
  -2  -5  -7 1104.76  105.20
  -2  -5  -6  591.73   39.31
  -2  -5  -6  545.77   36.33
   7  -2  -6  513.88   36.83
  -2  -5  -6  459.40   53.83
  -2  -5  -6  467.55   58.67
  -2  -5  -5   39.74   18.31
  -2  -5  -5   85.30   10.43
  -2  -5  -5  100.83   21.65
  -2  -5  -5   85.42   11.02
   7  -2  -5   76.86   11.53
   7  -2  -5   91.18   11.39
  -2  -5  -4 1750.87  141.23
  -2  -5  -4 1758.79   97.62
  -2  -5  -4 1971.32  124.08
  -2  -5  -4 1749.29   98.25
   7  -2  -4 1762.98   98.27
   7  -2  -4 1758.80  100.44
   7  -2  -3  204.66   18.07
  -2  -5  -3  219.31   42.85
  -2  -5  -3  188.18   16.05
   7  -2  -3  185.71   16.30
  -2  -5  -3  188.58   16.27
   7  -2  -2  259.40   22.48
  -2  -5  -2  261.38   20.29
  -2  -5  -2  278.33   20.52
   7  -2  -2  273.93   21.78
   7  -2  -1  189.72   24.50
  -2  -5  -1  166.26   16.50
  -2  -5  -1  146.58   13.54
   7  -2  -1  154.94   15.58
   7  -2   0  892.86   65.30
  -2  -5   0  970.04   55.22
  -2  -5   0  815.06   49.30
   7  -2   0  827.44   52.28
   7  -2   1  184.97   17.44
  -2  -5   1  172.99   15.01
   7  -2   1  186.91   25.25
   7  -2   1  183.38   15.83
  -2  -5   1  240.04   20.62
  -2  -5   1  186.53   44.51
  -2  -5   2  481.40   69.21
   7  -2   2  416.39   40.83
   7  -2   2  400.39   28.33
   7  -2   2  423.83   30.59
  -2  -5   2  439.70   33.20
   7  -2   2  411.02   28.91
   7  -2   3   69.50    9.48
   7  -2   3   70.04   16.24
  -2  -5   3   67.10    9.33
   7  -2   3   78.08    9.77
  -2  -5   3   88.09   13.23
  -2  -5   3   57.36   25.29
   7  -2   4 1471.84   80.08
   7  -2   4 1315.81   78.84
  -2  -5   4 1409.25   79.85
  -2  -5   4 1384.20  122.25
  -2  -5   4 1292.04   83.93
   7  -2   4 1393.46   98.06
   7  -2   5 1692.38   92.55
  -2  -5   5 1752.12   92.95
  -2  -5   5 1679.16  132.41
   7  -2   5 1682.30  112.89
   7  -2   6  169.76   17.68
  -2  -5   6  174.88   17.70
  -2  -5   6  148.28   32.78
  -2  -5   6  128.32   18.94
   7  -2   6  207.05   31.26
  -2  -5   7  531.46   44.21
   7  -2   7  668.21   64.29
   7  -2   7  625.73   43.86
  -2  -5   7  670.17   43.96
  -2  -5   8   76.69   22.49
   7  -2   8  116.04   25.82
  -2  -5   8  108.36   14.04
   7  -2   8   94.44   14.66
  -2  -5   8  105.48   14.25
  -2  -5   9   15.57   11.25
   7  -2   9   38.93   14.80
  -2  -5   9   24.38    7.35
  -2  -5   9   18.32    7.39
   7  -2   9   14.17    7.32
  -2  -5  10  224.89   33.50
  -2  -5  10  213.30   22.79
   7  -2  10  134.46   29.31
  -2  -5  10  231.87   21.56
  -2  -5  10  229.87   21.73
   7  -2  10  139.69   20.49
  -2  -5  10  177.74   20.23
  -2  -5  11  176.04   19.37
  -2  -5  11  196.91   19.33
  -2  -5  11  165.13   18.29
   7  -2  11  176.65   20.70
  -2  -5  11  158.89   17.68
  -2  -5  12   79.46   11.52
  -2  -5  12   66.06   10.36
  -2  -5  12   59.13    9.44
   7  -2  12   59.73   10.83
  -2  -5  12   80.90   11.27
   7  -2  13  422.34   32.97
  -2  -5  13  515.55   33.13
  -2  -5  13  482.00   31.50
  -2  -5  13  468.37   32.61
   7  -2  14  110.56   11.85
  -2  -5  14  116.65   12.26
  -2  -5  14  132.55   10.87
  -2  -5  15  426.67   27.23
  -1  -6 -15  108.26    8.54
   7  -1 -14  146.77   12.77
  -1  -6 -14  152.79   12.23
  -1  -6 -13    5.43    3.03
  -1  -6 -12  206.80   17.62
  -1  -6 -12  216.15   18.29
  -1  -6 -11    4.04    3.62
  -1  -6 -11    5.48    4.31
  -1  -6 -10  294.07   29.76
  -1  -6 -10  353.15   24.31
  -1  -6  -9  171.30   17.82
  -1  -6  -9  170.32   22.50
   7  -1  -9  154.16   27.49
  -1  -6  -8  339.29   26.91
  -1  -6  -8  337.50   31.63
  -1  -6  -8  331.35   27.43
  -1  -6  -7   11.99    5.18
  -1  -6  -7    2.86    3.98
  -1  -6  -6  288.67   21.25
  -1  -6  -6  255.92   21.69
  -1  -6  -5  396.70   28.29
   7  -1  -5  376.06   30.84
  -1  -6  -5  412.50   27.26
  -1  -6  -5  323.31   28.72
  -1  -6  -4  343.08   25.65
   7  -1  -4  358.67   28.74
  -1  -6  -4  350.97   24.39
  -1  -6  -4  325.50   52.01
   7  -1  -3  299.31   24.70
  -1  -6  -3  329.92   56.72
  -1  -6  -3  331.08   23.63
   7  -1  -3  289.35   24.99
  -1  -6  -3  285.51   21.21
  -1  -6  -3  318.43   23.49
   7  -1  -2  505.37   36.53
  -1  -6  -2  577.30   78.74
  -1  -6  -2  537.67   34.52
   7  -1  -2  526.52   36.38
  -1  -6  -2  522.18   34.02
   7  -1  -1  159.78   16.22
   7  -1  -1  157.32   15.78
   7  -1  -1  170.91   25.10
   7  -1   0  189.24   17.21
  -1  -6   0  165.26   45.38
   7  -1   0  162.60   24.66
   7  -1   0  176.51   16.86
   7  -1   1   48.91    8.04
   7  -1   1   30.29   10.87
   7  -1   1   47.19    8.31
  -1  -6   1   22.69    8.23
  -1  -6   1   45.95   26.18
   7  -1   2   83.50   11.22
   7  -1   2   82.75   17.79
  -1  -6   2  107.33   12.05
   7  -1   2   97.63   11.75
  -1  -6   2   78.65   14.46
  -1  -6   2   96.90   32.81
   7  -1   3  803.84   51.09
  -1  -6   3  915.85   98.25
   7  -1   3  768.61   67.12
  -1  -6   3  896.65   52.00
  -1  -6   3  719.14   55.47
   7  -1   4  316.22   24.83
  -1  -6   4  225.01   46.96
  -1  -6   4  283.18   27.95
   7  -1   4  275.39   36.45
  -1  -6   4  314.95   25.01
   7  -1   5 1055.11   87.80
  -1  -6   5 1087.86   68.97
  -1  -6   5 1172.76   73.74
   7  -1   5 1210.25   69.80
  -1  -6   6    1.12    5.53
  -1  -6   6    3.79    4.55
  -1  -6   6    2.81    6.75
   7  -1   6    6.05    7.26
   7  -1   7  514.23   57.36
  -1  -6   7  478.51   37.57
  -1  -6   7  545.04   38.56
  -1  -6   8   12.38    6.20
  -1  -6   8   11.30    6.53
  -1  -6   8    2.77    4.45
  -1  -6   8    7.91    6.34
   7  -1   8    7.51    9.02
  -1  -6   9  332.43   36.33
  -1  -6   9  248.56   26.15
   7  -1   9  196.15   36.46
  -1  -6   9  237.19   25.09
  -1  -6   9  304.85   25.79
  -1  -6   9  262.71   24.35
  -1  -6  10   63.87   11.98
  -1  -6  10   41.36   10.02
  -1  -6  11  211.32   19.96
  -1  -6  11  182.20   19.44
  -1  -6  11  158.27   17.89
  -1  -6  12  592.39   38.41
  -1  -6  12  552.65   38.32
  -1  -6  12  531.07   37.04
  -1  -6  13   36.04    6.73
  -1  -6  14  278.39   19.48
  -1  -6  15   12.91    2.66
   7   0 -14  227.30   16.39
   7   0 -14  280.13   18.38
   0  -7 -13   37.42    5.88
   7   0 -13   38.34    7.04
   0  -7 -12  204.22   17.19
   0  -7 -12  187.21   14.99
   0  -7 -11  238.64   20.54
   0  -7 -11  222.62   17.84
   0  -7 -10    0.91    3.10
   0  -7 -10   13.69    4.23
   0  -7 -10    8.59    6.87
   0  -7  -9  188.38   19.84
   0  -7  -9  238.85   18.95
   0  -7  -9  180.75   24.73
   0  -7  -8   91.14   12.69
   0  -7  -8  110.39   21.40
   0  -7  -8  110.33   17.92
   0  -7  -7  203.25   19.78
   0  -7  -7  229.47   24.39
   0  -7  -6   18.38    5.99
   7   0  -6   23.48    8.33
   0  -7  -6   31.04    9.37
   0  -7  -6   22.08    6.92
   7   0  -5   97.59   14.56
   0  -7  -5   91.33   11.36
   7   0  -5   97.59   12.99
   0  -7  -5   91.09   11.81
   7   0  -4   44.00    9.63
   0  -7  -4   37.32    7.72
   0  -7  -4   59.30    8.24
   7   0  -4   37.58    8.07
   7   0  -3  466.29   35.89
   0  -7  -3  465.44   32.55
   0  -7  -3  495.57   32.57
   0  -7  -3  474.40   31.41
   7   0  -3  459.20   33.56
   7   0  -2   65.62   10.86
   0  -7  -2   60.48    9.11
   0  -7  -2   72.82    9.14
   0  -7  -2   62.28    8.27
   7   0  -2   71.28    9.88
   7   0  -1  845.98   54.58
   0  -7  -1  890.29   51.00
   7   0  -1  865.81   52.48
   0  -7  -1  838.65   49.92
   0  -7  -1  794.36   51.15
   0  -7   0   30.49    5.68
   0  -7   0   30.84    6.49
   7   0   0   21.83    5.89
   0  -7   0   29.71    5.44
   7   0   0   20.21    6.20
   7   0   1  613.18   38.66
   7   0   1  536.06   39.15
   0  -7   1  590.83   36.77
   0  -7   1  549.84   35.67
   7   0   2   69.18   10.50
   0  -7   2   71.95    9.09
   7   0   3   34.17   13.59
   0  -7   3   59.16    8.42
   7   0   3   39.34    8.10
   0  -7   3   38.85    9.46
   0  -7   3   56.22    9.24
   7   0   4  245.57   36.36
   0  -7   4  283.62   22.68
   0  -7   4  283.16   26.52
   0  -7   4  311.84   24.97
   7   0   4  263.80   23.92
   7   0   5    5.99    7.22
   0  -7   5   10.20    4.85
   7   0   5   19.20    6.88
   0  -7   5   15.16    7.26
   0  -7   5   19.62    6.76
   0  -7   6  767.75   48.71
   7   0   6  689.03   69.65
   0  -7   6  743.34   50.71
   7   0   6  713.11   49.71
   0  -7   6  706.88   49.68
   7   0   7   95.85   24.07
   0  -7   7  100.90   13.40
   0  -7   7   75.95   13.19
   0  -7   7   67.64   13.37
   0  -7   7   79.77   13.04
   0  -7   8  404.92   35.73
   0  -7   8  475.55   35.94
   7   0   8  441.04   56.37
   0  -7   8  473.88   37.17
   0  -7   8  477.05   35.80
   0  -7   9  144.63   16.59
   0  -7   9   97.62   15.55
   0  -7   9  146.38   17.33
   0  -7   9  115.64   15.88
   0  -7  10  276.35   26.32
   0  -7  10  328.95   28.65
   0  -7  11   44.74    9.03
   0  -7  11   30.01    7.43
   0  -7  11   37.32    7.82
   0  -7  12  273.23   21.90
   0  -7  12  249.31   21.65
   0  -7  12  291.06   23.22
   0  -7  12  295.71   22.06
   0  -7  13  134.35   13.20
   0  -7  13  153.89   13.18
   0  -7  13  163.47   14.47
   0  -7  14  286.80   19.37
   0  -7  14  279.78   19.55
   0  -7  15   75.99    6.41
   7   1 -14    6.85    2.36
   7   1 -13  133.07   12.69
   1  -8 -12    0.51    2.37
   7   1 -12    2.35    4.10
   1  -8 -11   67.51    9.42
   7   1 -11   65.66   11.68
   1  -8 -10    1.67    3.48
   7   1 -10    9.26    7.61
   1  -8  -9  185.11   22.83
   1  -8  -9  155.09   17.24
   7   1  -9  140.10   20.02
   1  -8  -8  270.20   30.89
   1  -8  -8  328.55   27.16
   7   1  -8  347.38   32.08
   1  -8  -7 1064.88   75.58
   1  -8  -7 1142.98   68.18
   7   1  -7 1094.37   73.71
   1  -8  -6  331.49   32.94
   1  -8  -6  363.40   28.25
   7   1  -6  361.44   32.97
   1  -8  -5  216.57   20.09
   1  -8  -5  213.49   24.11
   1  -8  -5  219.31   19.19
   7   1  -5  176.46   21.51
   1  -8  -4  381.99   30.18
   1  -8  -4  442.11   30.33
   7   1  -4  427.69   34.95
   1  -8  -3  193.45   17.52
   1  -8  -3  175.26   17.28
   1  -8  -3  185.36   16.53
   7   1  -3  159.02   19.10
   1  -8  -2   59.23    9.16
   7   1  -2   63.37   11.44
   1  -8  -2   51.39    8.94
   1  -8  -2   63.45    8.78
   7   1  -1    5.30    6.36
   1  -8  -1    3.35    3.42
   1  -8  -1    3.71    3.15
   7   1  -1    5.09    4.57
   7   1   0 1212.95   96.80
   7   1   0 1316.55   80.54
   1  -8   0 1417.48   77.16
   1  -8   0 1307.85   75.71
   7   1   1  164.22   27.75
   7   1   1  155.48   17.80
   1  -8   1  163.57   16.43
   1  -8   1  185.16   16.28
   1  -8   1  165.48   15.28
   1  -8   2 1057.95   62.86
   7   1   2  963.38   64.05
   7   1   2  995.39   82.56
   1  -8   2 1058.12   61.66
   7   1   3   30.06    7.92
   1  -8   3   29.20    6.77
   1  -8   3   42.02    7.27
   7   1   3   48.53   15.03
   1  -8   4  861.80   55.12
   1  -8   4  814.43   51.99
   1  -8   4  857.53   53.70
   7   1   4  887.29   56.31
   1  -8   5  928.14   57.58
   1  -8   5  925.76   56.08
   7   1   5  913.97   57.38
   1  -8   6  101.39   14.69
   1  -8   6   94.07   15.21
   1  -8   6   76.54   12.68
   7   1   6  104.97   15.00
   1  -8   7  593.07   41.81
   1  -8   7  536.16   41.52
   1  -8   7  573.03   42.27
   1  -8   8  130.50   15.65
   1  -8   8  108.38   14.92
   1  -8   8   98.92   15.07
   1  -8   8  136.97   15.33
   1  -8   9   23.99    6.51
   1  -8   9   23.08    7.53
   1  -8   9   18.61    6.40
   1  -8   9   14.81    6.34
   1  -8  10   98.08   11.65
   1  -8  10  115.42   12.61
   1  -8  10   64.28   11.47
   1  -8  10   78.08   12.75
   1  -8  11  163.63   14.71
   1  -8  11  141.13   15.47
   1  -8  11  141.83   16.01
   1  -8  12   42.82    6.85
   1  -8  12   44.02    7.05
   1  -8  12   51.84    8.16
   1  -8  13  442.11   26.98
   1  -8  13  481.92   28.14
   1  -8  14   29.43    4.30
   1  -8  14   34.34    4.39
   7   2 -13   15.05    3.39
   7   2 -12   53.94    7.86
   2  -9 -12   48.84    6.31
   7   2 -11    9.07    4.97
   2  -9 -11   10.36    3.96
   7   2 -10  221.91   22.72
   2  -9 -10  233.44   19.50
   7   2  -9  199.47   23.09
   2  -9  -9  205.65   19.34
   7   2  -8  672.46   49.57
   2  -9  -8  642.01   50.50
   2  -9  -8  600.38   42.39
   7   2  -7   35.39   10.31
   2  -9  -7   44.20   13.07
   2  -9  -7   52.45    9.57
   7   2  -6  591.16   47.25
   2  -9  -6  657.72   42.87
   7   2  -5  563.15   44.54
   2  -9  -5  603.55   40.07
   7   2  -4   64.29   12.86
   2  -9  -4   97.18   17.27
   2  -9  -4   90.06   11.54
   2  -9  -3  627.91   41.46
   7   2  -3  569.65   44.59
   2  -9  -3  728.72   52.57
   2  -9  -3  597.95   40.29
   2  -9  -2  312.80   24.99
   2  -9  -2  302.00   24.16
   7   2  -2  305.98   28.11
   2  -9  -2  323.20   26.04
   2  -9  -2  378.68   34.90
   2  -9  -1   35.73   11.75
   2  -9  -1   25.25    7.09
   2  -9  -1   31.54    6.89
   2  -9  -1   37.16    7.02
   2  -9   0  336.70   26.57
   2  -9   0  311.42   24.38
   2  -9   0  334.69   25.42
   7   2   0  307.89   39.54
   2  -9   1   22.62    5.26
   2  -9   1   36.52    7.49
   2  -9   1   28.05    7.25
   7   2   1   14.04   10.19
   2  -9   2  219.33   19.27
   2  -9   2  193.09   17.29
   2  -9   2  216.94   19.94
   7   2   2  166.91   29.66
   2  -9   3 1406.51   79.49
   7   2   3 1294.74  101.34
   2  -9   3 1382.40   78.32
   2  -9   3 1275.90   75.84
   2  -9   3 1246.54   80.48
   2  -9   4  415.30   30.87
   7   2   4  346.53   44.91
   2  -9   4  396.00   30.01
   2  -9   4  351.38   27.88
   2  -9   4  377.44   31.22
   2  -9   5 1817.45  103.98
   2  -9   5 1929.65  106.17
   2  -9   5 1748.66  105.41
   2  -9   5 1883.34  106.64
   2  -9   6  192.29   19.12
   2  -9   6  228.66   21.01
   2  -9   6  194.01   19.70
   2  -9   6  166.34   18.60
   2  -9   7  116.10   15.12
   2  -9   7  150.88   16.73
   2  -9   7  106.75   14.13
   2  -9   7  152.17   15.81
   2  -9   8    8.12    5.13
   2  -9   8   13.46    6.25
   2  -9   8   16.22    5.28
   2  -9   8   19.65    5.77
   2  -9   9   16.81    6.50
   2  -9   9    8.31    5.48
   2  -9   9   14.66    4.65
   2  -9   9   20.52    5.37
   2  -9  10   32.62    5.86
   2  -9  10   25.77    6.72
   2  -9  10   36.12    7.57
   2  -9  10   22.16    6.40
   2  -9  11  197.82   15.72
   2  -9  11  244.36   18.87
   2  -9  11  203.17   17.58
   2  -9  11  192.41   17.22
   2  -9  12  338.40   22.38
   2  -9  12  324.64   22.04
   2  -9  12  295.34   21.22
   2  -9  13  175.59   12.61
   7   3 -12   91.87    8.32
   7   3 -11  285.25   21.11
   3 -10 -10   35.95    5.87
   3 -10  -9   42.35    7.34
   3 -10  -8  181.14   17.02
   3 -10  -7   65.11    9.72
   3 -10  -6    9.85    5.02
   3 -10  -6   24.65    9.62
   3 -10  -5  334.53   25.74
   3 -10  -5  306.79   33.71
   3 -10  -4   10.98    5.06
   3 -10  -4    1.83    7.93
   3 -10  -3 1662.90   89.96
   3 -10  -3 1373.16  101.55
   3 -10  -2  172.37   16.74
   7   3  -2  163.20   19.44
   3 -10  -2  176.57   16.41
   3 -10  -2  160.31   24.37
   3 -10  -2  161.82   17.48
   3 -10  -1  559.46   37.15
   3 -10  -1  581.38   38.89
   3 -10  -1  466.71   46.99
   7   3  -1  536.44   39.98
   3 -10  -1  520.36   35.81
   7   3   0    7.07    5.45
   3 -10   0   17.92    5.55
   3 -10   0   11.22    9.26
   3 -10   0   10.49    5.27
   7   3   1   29.25    7.92
   3 -10   1   21.89    6.17
   3 -10   1   18.39    9.68
   3 -10   1   18.47    6.51
   7   3   2   37.21    9.38
   3 -10   2   41.86    7.37
   3 -10   2   40.99    8.08
   3 -10   2   41.77   11.32
   3 -10   2   39.09    8.50
   7   3   3   72.40   11.51
   3 -10   3   62.81   10.03
   3 -10   3   56.39    8.79
   3 -10   3   60.70   10.68
   7   3   4  464.90   34.08
   3 -10   4  462.03   32.96
   3 -10   4  425.91   31.07
   3 -10   4  418.51   32.95
   7   3   5  284.82   23.39
   3 -10   5  258.04   21.92
   3 -10   5  240.63   20.52
   3 -10   6  780.64   46.02
   3 -10   6  698.18   43.89
   3 -10   7   30.21    7.94
   3 -10   7   36.13    8.24
   3 -10   7   40.41    6.80
   3 -10   8  236.36   21.53
   3 -10   8  260.78   21.85
   3 -10   9   26.46    6.49
   3 -10   9   25.46    6.46
   3 -10  10  112.37   11.43
   3 -10  10  100.72   10.94
   3 -10  11   95.20    8.97
   3 -10  11   91.30    9.03
   7   4 -10   10.59    2.99
   7   4  -9   27.49    5.67
   7   4  -8   94.66   12.14
   4 -11  -8  101.90   10.31
   7   4  -7   80.28   11.57
   4 -11  -7   78.73    9.48
   7   4  -6  174.97   18.52
   4 -11  -6  168.38   15.47
   7   4  -5  289.97   25.98
   4 -11  -5  304.52   22.92
   7   4  -4  620.01   42.97
   4 -11  -4  595.94   39.13
   7   4  -3   16.92    6.75
   4 -11  -3   23.26    5.58
   7   4  -2  230.53   21.65
   4 -11  -1   53.79    8.54
   7   4  -1   42.06    8.99
   7   4   0  380.11   29.84
   4 -11   0  384.87   27.97
   4 -11   1    1.70    3.53
   7   4   1    5.89    4.74
   4 -11   1    8.32    4.64
   4 -11   2  185.46   19.23
   7   4   2  237.90   20.77
   4 -11   2  232.94   19.48
   4 -11   3   17.11    5.45
   4 -11   3   27.50    6.57
   7   4   3   16.42    6.57
   4 -11   4  472.60   30.13
   7   4   4  508.36   31.72
   4 -11   5  129.90   14.00
   4 -11   5  128.99   13.23
   4 -11   6  105.00   12.40
   4 -11   6  113.41   12.07
   4 -11   7  303.05   23.53
   4 -11   7  301.30   22.72
   4 -11   8   82.03   10.03
   4 -11   8   98.08   10.22
   4 -11   9  134.31   11.43
   4 -11   9  117.41   10.89
   4 -11  10    9.16    2.50
   7   5  -7   26.58    5.04
   7   5  -6  247.93   19.54
   7   5  -5  293.15   22.65
   7   5  -4  118.99   13.00
   7   5  -3  192.69   17.38
   7   5  -2  138.16   14.07
   7   5  -1   45.99    7.79
   7   5   0   67.88    9.24
   5 -12   1   99.34   10.79
   7   5   1   89.60   10.94
   5 -12   2   56.65    7.90
   7   5   2   58.60    8.51
   5 -12   3  434.90   29.29
   5 -12   4   89.14   10.02
   5 -12   5  273.23   20.27
   5 -12   6   26.18    4.89
   5 -12   7  105.74    9.51
 -12   4  -4  129.56   13.17
 -12   4  -3  111.13   12.31
 -12   4  -2  233.44   19.12
 -12   4  -1  176.32   15.60
 -12   4   0   30.56    6.19
 -12   4   1  282.31   20.57
   8 -12   2   14.50    4.30
 -12   4   2   10.96    3.58
   8 -12   3  345.52   24.01
   8 -12   4   13.50    3.90
   8 -12   5   69.56    7.98
   8 -12   6    3.30    2.12
 -11   3  -8   23.46    5.06
 -11   3  -7   69.72    9.55
   8 -11  -7   51.34    6.98
   8 -11  -6   76.63    9.06
 -11   3  -5  239.45   22.23
   8 -11  -5  253.02   19.72
 -11   3  -4   13.34    5.78
 -11   3  -3  592.98   41.02
 -11   3  -2  513.68   36.66
 -11   3  -1  181.52   17.92
   8 -11   0  206.66   17.68
 -11   3   0  205.78   18.97
 -11   3   1   45.98    8.37
   8 -11   1   44.66    7.51
 -11   3   2   21.46    6.02
   8 -11   2   31.03    6.40
   8 -11   3  106.42   11.39
 -11   3   3   88.88   10.85
 -11   3   3   77.29    9.25
 -11   3   4   16.80    5.23
   8 -11   4   19.10    5.36
 -11   3   4   17.03    4.47
 -11   3   5  163.44   14.61
   8 -11   5  175.95   15.86
 -11   3   5  171.62   14.65
   8 -11   6  444.76   30.65
 -11   3   6  459.77   29.57
   8 -11   7    0.55    2.79
 -11   3   7    2.73    2.56
   8 -11   8  302.95   20.30
 -11   3   8  280.90   18.94
   8 -11   9   28.94    4.07
   8 -10  -9   21.73    4.23
 -10   2  -8  242.54   17.03
   8 -10  -8  147.30   14.95
 -10   2  -7  209.35   19.05
   8 -10  -7  249.49   19.69
 -10   2  -6   60.08    9.31
   8 -10  -6   64.18    9.29
   8 -10  -5  293.84   23.04
 -10   2  -4  241.70   19.35
   8 -10  -4  264.98   20.86
 -10   2  -3   15.49    4.51
   8 -10  -3   25.17    5.70
   8 -10  -2  463.49   31.63
 -10   2  -2  446.35   34.92
 -10   2  -2  464.17   30.91
 -10   2  -1    9.64    6.55
   8 -10  -1    8.17    4.63
 -10   2  -1    2.46    3.54
   8 -10   0 1076.69   63.36
 -10   2   0 1122.65   66.99
 -10   2   0 1029.93   62.40
 -10   2   1   -0.91    5.21
   8 -10   1    0.68    3.56
 -10   2   1    4.64    3.89
   8 -10   2   64.42    9.29
 -10   2   2   60.07   10.22
 -10   2   2   60.14    9.25
 -10   2   3   55.47    9.95
   8 -10   3   65.16    9.57
 -10   2   4  200.50   18.99
   8 -10   4  217.37   18.98
 -10   2   5  132.99   14.35
   8 -10   5  116.21   13.30
 -10   2   6  197.70   18.32
   8 -10   6  212.89   19.06
   8 -10   6  211.16   20.25
 -10   2   7  645.81   39.19
   8 -10   7  586.45   39.33
   8 -10   7  522.87   39.73
   8 -10   8  168.00   16.84
   8 -10   8  229.35   19.29
   8 -10   9  157.29   14.52
   8 -10   9  203.26   16.24
   8 -10  10   31.02    4.67
  -9   1 -11   11.93    3.32
  -9   1 -10  520.00   31.28
   8  -9 -10  418.87   28.68
  -9   1  -9   15.68    5.14
   8  -9  -9   18.94    4.74
  -9   1  -8  159.33   17.13
   8  -9  -8  154.75   15.40
  -9   1  -7    3.49    4.80
   8  -9  -7    0.73    3.38
   8  -9  -6   61.15    9.18
  -9   1  -5   11.12    4.84
   8  -9  -5   16.97    5.07
  -9   1  -4   97.16   11.76
   8  -9  -4  114.29   12.34
  -9   1  -3  117.51   13.10
   8  -9  -3  118.99   12.80
  -9   1  -2  629.57   41.59
   8  -9  -2  649.67   40.88
   8  -9  -1  388.97   27.94
  -9   1  -1  369.84   31.17
  -9   1  -1  375.65   28.25
   8  -9  -1  394.94   27.50
   8  -9   0  154.65   15.00
  -9   1   0  159.08   15.96
  -9   1   0  154.52   17.76
   8  -9   1  200.35   17.35
  -9   1   1  164.11   16.98
  -9   1   1  209.95   20.46
  -9   1   2   14.39    6.44
   8  -9   2   11.70    4.93
  -9   1   3  155.50   17.44
   8  -9   3  158.28   15.60
  -9   1   4   13.73    6.05
   8  -9   4   14.14    5.54
   8  -9   4   10.83    5.66
   8  -9   5  364.90   30.09
  -9   1   5  377.02   29.91
   8  -9   5  382.48   29.01
   8  -9   5  413.99   31.17
   8  -9   6   24.99    7.44
  -9   1   6   35.36    8.28
   8  -9   6   32.33    7.59
   8  -9   6   25.94    7.79
   8  -9   7  671.04   47.12
   8  -9   7  688.57   45.91
   8  -9   7  676.47   47.25
  -9   1   7  740.26   46.92
   8  -9   8   25.88    6.68
   8  -9   8   27.56    7.38
   8  -9   8   30.62    7.50
  -9   1   8   38.28    8.31
   8  -9   9  176.14   17.25
  -9   1   9  160.23   16.98
   8  -9   9  160.78   17.62
   8  -9  10  112.58   12.02
   8  -9  10  136.16   12.80
   8  -9  10  141.00   14.13
   8  -9  11   93.90    9.39
   8  -9  11  117.77    9.86
   8  -9  11  120.57   11.23
  -8   0 -13   18.98    3.48
   8  -8 -12  211.50   15.99
  -8   0 -12  150.69   13.60
   8  -8 -11  318.93   25.18
  -8   0 -11  324.89   24.36
  -8   0 -10  156.94   16.42
   8  -8 -10  140.54   14.22
   8  -8 -10  134.83   16.14
   8  -8 -10  128.59   12.81
  -8   0  -9  174.83   18.45
   8  -8  -9  128.82   15.04
   8  -8  -9  177.43   19.01
  -8   0  -8  148.35   17.15
   8  -8  -8  116.04   14.88
   8  -8  -8  130.92   17.12
   8  -8  -8  120.60   13.66
   8  -8  -7   60.83   10.29
   8  -8  -7   46.31   10.83
   8  -8  -7   51.11    8.47
   8  -8  -6   42.01    7.76
  -8   0  -6   45.11    8.59
   8  -8  -6   43.45    9.27
   8  -8  -5  108.00   12.26
  -8   0  -5   77.60   20.49
  -8   0  -5  124.72   13.92
   8  -8  -5  119.05   14.25
   8  -8  -4    7.00    4.07
   8  -8  -4    8.38    5.24
  -8   0  -4   13.97    5.21
  -8   0  -4   16.45   10.41
   8  -8  -3 1206.19   72.45
  -8   0  -3 1242.55   72.48
   8  -8  -3 1272.48   87.15
   8  -8  -3 1212.58   69.97
  -8   0  -3 1199.31   90.58
   8  -8  -2   21.59    6.26
   8  -8  -2   32.55    6.39
  -8   0  -2   28.09    6.92
  -8   0  -1  611.45   41.52
   8  -8  -1  615.11   39.65
   8  -8  -1  635.56   57.04
   8  -8  -1  620.98   41.26
   8  -8  -1  633.62   39.04
   8  -8   0   45.33    7.35
   8  -8   0   34.03   14.14
  -8   0   0   39.10    8.17
   8  -8   1   69.13    9.25
  -8   0   1   73.09   12.20
   8  -8   2  190.17   26.74
   8  -8   2  156.74   14.91
  -8   0   2  152.23   17.60
   8  -8   3   28.19    7.44
   8  -8   3   56.41   15.75
   8  -8   3   37.04    6.99
   8  -8   3   32.59    7.83
  -8   0   3   33.09    8.75
   8  -8   4  446.87   35.10
   8  -8   4  474.90   32.97
   8  -8   4  503.86   35.27
  -8   0   4  464.40   35.56
   8  -8   5  211.11   21.46
   8  -8   5  201.34   18.65
   8  -8   5  211.46   20.43
  -8   0   5  214.04   21.06
   8  -8   6  607.39   43.04
   8  -8   6  549.98   38.76
   8  -8   6  537.82   40.36
  -8   0   6  579.19   41.00
   8  -8   7  190.54   18.72
   8  -8   7  203.47   20.33
   8  -8   7  159.94   17.02
   8  -8   7  211.14   22.14
  -8   0   7  217.05   21.03
   8  -8   8  186.28   18.68
   8  -8   8  134.86   17.49
   8  -8   8  162.13   17.38
   8  -8   8  215.39   22.30
   8  -8   9   -0.84    2.86
   8  -8   9    2.44    4.25
   8  -8   9    0.79    3.41
  -8   0   9    1.00    3.99
   8  -8   9    2.39    4.53
   8  -8  10  284.37   21.51
   8  -8  10  247.18   23.70
  -8   0  10  231.06   21.41
   8  -8  10  210.28   19.83
   8  -8  10  289.69   21.01
   8  -8  11  143.38   12.99
   8  -8  11  158.13   15.61
  -8   0  11  118.65   12.16
   8  -8  11  106.18   11.39
   8  -8  11  119.27   11.04
   8  -8  12  276.73   19.41
   8  -8  12  279.91   21.34
   8  -8  13   27.37    4.10
  -7  -1 -14   34.73    4.69
   8  -7 -13  415.58   27.44
  -7  -1 -13  468.40   28.64
   8  -7 -12   32.84    6.59
   8  -7 -11  116.58   14.67
  -7  -1 -11  149.03   16.20
  -7  -1 -10   60.07   11.60
  -7  -1  -9   25.87    8.08
   8  -7  -8  103.63   15.95
  -7  -1  -8  144.17   17.58
  -7  -1  -7  297.81   47.69
   8  -7  -7  530.84   38.53
  -7  -1  -6   93.86   12.58
   8  -7  -6   98.70   14.69
   8  -7  -6   74.83   14.51
  -7  -1  -6   72.46   21.30
  -7  -1  -5  982.09   83.29
   8  -7  -5  888.75   59.27
   8  -7  -5  887.95   64.57
  -7  -1  -5  935.31   57.49
  -7  -1  -4  922.20   76.20
   8  -7  -4  784.33   60.99
  -7  -1  -4  818.06   51.98
   8  -7  -4  800.64   53.47
  -7  -1  -3   32.65    7.60
   8  -7  -3   44.41    8.62
   8  -7  -3   45.71   13.31
  -7  -1  -3   43.23   13.79
  -7  -1  -2  971.89   61.89
   8  -7  -2 1018.27   63.08
  -7  -1  -2 1054.32   78.98
   8  -7  -2 1119.75   78.89
  -7  -1  -2 1043.38   65.48
  -7  -1  -1  165.39   16.73
   8  -7  -1  158.96   16.60
  -7  -1  -1  167.48   24.20
  -7  -1  -1  203.88   19.93
   8  -7  -1  140.41   25.29
  -7  -1   0 1357.31   79.26
   8  -7   0 1313.09   76.81
   8  -7   0 1144.46   92.30
   8  -7   1    3.24    4.13
   8  -7   2   62.00   15.99
  -7  -1   3  213.48   21.18
   8  -7   3  221.41   28.24
   8  -7   3  216.50   19.47
  -7  -1   4  439.67   35.11
   8  -7   4  490.35   43.18
   8  -7   4  498.97   34.29
  -7  -1   5  219.97   22.02
   8  -7   5  221.74   26.01
   8  -7   5  213.75   18.94
   8  -7   5  261.74   21.59
   8  -7   6  358.77   27.23
   8  -7   6  374.46   28.98
   8  -7   6  340.54   27.10
  -7  -1   6  380.74   30.71
   8  -7   6  316.95   32.01
   8  -7   7 1083.12   65.86
   8  -7   7 1049.27   66.90
   8  -7   7  999.34   66.18
   8  -7   8  333.64   24.44
   8  -7   8  233.29   22.83
  -7  -1   8  385.26   29.21
   8  -7   9  149.93   15.52
  -7  -1   9  187.94   20.48
   8  -7   9  201.35   18.67
   8  -7  10    3.59    3.34
   8  -7  10    7.36    3.27
   8  -7  10    1.60    3.59
  -7  -1  10   12.15    6.65
   8  -7  11   80.11   10.34
  -7  -1  11   76.82   10.89
  -7  -1  12    3.02    3.42
   8  -7  12    1.08    2.96
   8  -7  13  148.83   12.27
   8  -7  14    6.47    2.13
  -6  -2 -15  131.50    9.76
   8  -6 -14  113.64   10.52
  -6  -2 -14  120.36   10.78
   8  -6 -14  125.14   10.97
  -6  -2 -13  132.78   12.92
   8  -6 -13  126.46   13.09
   8  -6 -12  244.31   22.10
  -6  -2 -11    4.89    5.38
   8  -6 -11   -1.09    5.39
  -6  -2 -10  365.64   31.63
   8  -6 -10  315.31   30.75
  -6  -2  -9    7.44    6.49
   8  -6  -9    4.15    6.44
  -6  -2  -8  194.06   37.42
  -6  -2  -8  303.40   26.66
   8  -6  -8  246.20   25.99
  -6  -2  -7   65.52   11.03
   8  -6  -7   65.57   13.21
  -6  -2  -7   43.64   18.07
   8  -6  -7   59.60   11.42
  -6  -2  -6  449.78   55.00
  -6  -2  -6  417.99   59.06
   8  -6  -6  439.23   34.98
   8  -6  -6  402.67   35.39
  -6  -2  -6  435.92   32.65
   8  -6  -5    4.26    6.38
   8  -6  -5    2.20    4.95
  -6  -2  -5    3.30    7.91
   8  -6  -5    8.23    5.79
  -6  -2  -5    2.49    4.78
   8  -6  -4   93.11   16.75
  -6  -2  -4   74.49   11.15
   8  -6  -4   93.02   13.17
  -6  -2  -4  104.94   22.81
   8  -6  -4   88.85   12.97
  -6  -2  -3  408.22   30.52
   8  -6  -3  396.34   31.72
  -6  -2  -3  447.42   47.35
   8  -6  -3  449.55   40.84
  -6  -2  -3  409.67   32.58
  -6  -2  -2  396.10   29.73
   8  -6  -2  367.19   30.03
  -6  -2  -2  408.01   42.92
   8  -6  -2  447.67   42.36
  -6  -2  -2  423.03   32.21
  -6  -2  -1 1395.43   83.21
  -6  -2  -1 1580.55   86.93
  -6  -2  -1 1506.89   99.77
   8  -6  -1 1356.15   83.98
   8  -6  -1 1487.54  100.57
   8  -6   0  218.53   20.47
   8  -6   0  213.86   30.24
  -6  -2   0  232.40   28.37
  -6  -2   0  245.70   22.18
  -6  -2   1  490.88   35.65
   8  -6   1  475.00   34.55
   8  -6   1  476.81   34.59
  -6  -2   2   30.96    7.96
   8  -6   2   32.47    7.62
   8  -6   2   26.55    6.92
   8  -6   2   43.90   13.20
   8  -6   3  103.48   19.05
   8  -6   3  100.20   13.19
   8  -6   4   13.45    5.24
   8  -6   4    4.93    4.89
   8  -6   4    6.55    7.87
   8  -6   5  284.87   29.22
   8  -6   5  280.03   25.80
  -6  -2   5  270.21   24.55
   8  -6   5  259.07   21.72
   8  -6   6    0.73    3.52
  -6  -2   6   -9.45   14.99
  -6  -2   6    4.17    5.74
   8  -6   6    1.32    5.26
   8  -6   6    4.80    5.57
  -6  -2   7  775.33   53.18
   8  -6   7  700.14   52.23
   8  -6   7  839.32   56.96
  -6  -2   8  178.74   21.46
   8  -6   8  214.03   24.33
  -6  -2   9  183.40   21.90
   8  -6   9  218.20   25.34
  -6  -2  10  303.68   26.82
   8  -6  10  189.62   25.61
  -6  -2  10  249.52   22.27
   8  -6  10  357.95   25.83
   8  -6  11   87.14   14.10
   8  -6  11   61.82   10.06
  -6  -2  11   82.01   11.91
   8  -6  12  486.80   35.88
   8  -6  12  476.35   31.73
  -6  -2  12  440.74   31.58
   8  -6  13   31.04    5.68
  -6  -2  13   40.68    6.33
   8  -6  13   33.64    6.99
   8  -6  14   68.66    8.12
   8  -6  14   66.35    7.14
  -5  -3 -15   20.83    3.70
   8  -5 -15   26.29    4.08
   8  -5 -15   16.72    3.43
  -5  -3 -14   35.79    5.66
   8  -5 -14   39.63    6.06
   8  -5 -13   14.53    5.19
   8  -5 -12  185.27   18.64
   8  -5 -11  514.21   39.54
   8  -5 -10  196.29   23.01
   8  -5  -9  805.45   57.84
   8  -5  -8  303.92   29.28
  -5  -3  -7   58.65   19.50
   8  -5  -7   56.85   10.74
   8  -5  -7   39.54   10.36
  -5  -3  -6  336.67   48.97
  -5  -3  -6  310.57   44.10
  -5  -3  -6  199.75   21.72
   8  -5  -6  308.66   27.79
   8  -5  -6  329.30   27.11
  -5  -3  -5  292.78   40.15
  -5  -3  -5  288.71   48.96
  -5  -3  -5  201.42   21.65
   8  -5  -5  262.67   27.13
   8  -5  -5  314.03   25.23
   8  -5  -4    4.15    5.13
  -5  -3  -4    5.44    9.22
  -5  -3  -4    5.76    5.64
  -5  -3  -4   -2.89    8.49
   8  -5  -4    1.52    8.18
   8  -5  -4   -0.90    4.18
   8  -5  -3  941.94   61.56
  -5  -3  -3  949.47   61.32
  -5  -3  -3 1094.97   81.56
   8  -5  -3 1110.70   72.65
   8  -5  -3  934.82   59.98
  -5  -3  -2  178.89   16.87
  -5  -3  -2  183.05   18.57
  -5  -3  -2  176.49   26.76
   8  -5  -2  203.88   27.20
   8  -5  -2  139.00   16.76
  -5  -3  -1 2906.97  170.31
  -5  -3  -1 2987.59  154.24
  -5  -3  -1 2748.19  151.04
   8  -5  -1 2824.24  169.57
   8  -5  -1 2611.38  152.34
  -5  -3   0   22.91    6.96
   8  -5   0   22.54   11.85
   8  -5   0   26.24    7.35
  -5  -3   1  420.46   31.07
   8  -5   1  372.48   29.72
   8  -5   1  389.46   29.48
   8  -5   2  789.43   52.50
  -5  -3   2  855.26   53.48
   8  -5   2  823.38   65.62
   8  -5   2  804.31   51.90
  -5  -3   3  153.24   17.36
   8  -5   3  167.94   24.28
   8  -5   3  165.48   17.19
  -5  -3   4  909.35   99.67
  -5  -3   4  847.76   55.25
   8  -5   4  851.72   62.72
   8  -5   4  819.99   54.89
  -5  -3   5   40.64   20.35
   8  -5   5   42.23    9.69
   8  -5   5   57.72   12.70
  -5  -3   6   26.94   17.20
   8  -5   6   43.88   11.10
   8  -5   6   62.29   11.95
  -5  -3   7  945.93   63.81
   8  -5   7  912.39   62.43
   8  -5   7 1010.22   65.94
   8  -5   8   92.89   15.52
  -5  -3   8   48.05   12.10
   8  -5   9   79.71   15.04
  -5  -3   9   60.25   12.96
   8  -5  10  789.86   63.14
  -5  -3  10  837.00   58.01
   8  -5  11  584.98   46.98
  -5  -3  11  622.50   41.59
  -5  -3  11  681.01   44.39
   8  -5  12  657.79   45.77
  -5  -3  12  646.53   39.52
  -5  -3  12  631.36   41.94
  -5  -3  13  213.71   17.14
   8  -5  13  204.29   18.80
   8  -5  13  197.97   16.54
  -5  -3  14  112.08   10.21
   8  -5  14  124.95   11.72
   8  -5  14   96.46    9.77
   8  -5  15    6.75    2.11
   8  -4 -15   56.77    6.34
  -4  -4 -15   52.11    5.76
   8  -4 -15   45.63    5.06
  -4  -4 -14    3.04    2.76
   8  -4 -14    0.42    2.54
  -4  -4 -13  131.62   13.21
   8  -4 -13  151.43   14.05
   8  -4 -12    2.46    4.30
  -4  -4 -11  638.71   43.69
   8  -4 -11  617.78   44.60
  -4  -4 -10   23.58    7.02
   8  -4 -10   23.03    8.49
  -4  -4  -9  353.43   32.93
   8  -4  -9  432.98   35.18
   8  -4  -8  463.02   36.44
  -4  -4  -8  397.91   52.39
  -4  -4  -8  411.93   35.20
   8  -4  -7   17.60    7.53
   8  -4  -7   18.83    7.27
  -4  -4  -7   41.33   15.64
  -4  -4  -7   16.66    7.02
   8  -4  -6  165.56   17.74
   8  -4  -6  124.47   17.10
  -4  -4  -6  117.09   29.86
  -4  -4  -6  128.80   15.28
  -4  -4  -5   24.36    6.64
   8  -4  -5   23.04    9.55
   8  -4  -5   19.05    6.55
  -4  -4  -5   38.36   15.38
  -4  -4  -5   32.06   19.06
  -4  -4  -4  235.71   20.59
   8  -4  -4  216.74   22.58
   8  -4  -4  271.88   28.85
  -4  -4  -4  274.66   37.72
  -4  -4  -4  302.75   51.49
   8  -4  -4  247.77   21.80
  -4  -4  -3  337.60   25.58
   8  -4  -3  324.33   27.91
  -4  -4  -3  339.95   27.37
  -4  -4  -3  373.36   60.88
  -4  -4  -3  345.20   41.25
  -4  -4  -2  558.02   38.31
   8  -4  -2  595.42   41.48
  -4  -4  -2  541.82   36.47
  -4  -4  -2  721.30   58.45
  -4  -4  -2  640.84   41.72
  -4  -4  -2  779.60   93.53
  -4  -4  -1  352.06   26.41
  -4  -4  -1  354.17   28.49
   8  -4  -1  376.86   28.94
  -4  -4   0 1952.89  110.41
   8  -4   0 1921.10  112.77
  -4  -4   1   16.90    6.89
  -4  -4   1   21.80   23.08
   8  -4   1   21.74    5.96
   8  -4   1   12.83    6.22
   8  -4   2  297.16   32.68
  -4  -4   2  306.41   26.03
  -4  -4   2  354.15   64.41
   8  -4   2  276.13   24.75
   8  -4   2  317.41   24.63
  -4  -4   3  193.63   45.78
  -4  -4   3  199.50   20.12
   8  -4   3  194.27   25.85
   8  -4   3  186.14   18.23
  -4  -4   4  369.42   60.19
  -4  -4   4  371.53   30.85
   8  -4   4  363.38   38.46
   8  -4   4  379.04   29.82
  -4  -4   5   78.13   29.59
  -4  -4   5   94.64   14.30
   8  -4   5   75.90   12.45
   8  -4   5   87.36   15.81
  -4  -4   6  274.05   46.21
  -4  -4   6  255.54   25.99
   8  -4   6  246.58   26.28
   8  -4   6  281.13   25.87
   8  -4   7   57.56   11.59
   8  -4   7   81.66   13.43
  -4  -4   8  786.94   61.64
   8  -4   8 1117.41   67.37
  -4  -4   9  408.25   33.71
   8  -4   9  356.46   34.41
   8  -4  10   20.86    8.43
  -4  -4  10   10.04    6.75
  -4  -4  10   28.19    8.59
  -4  -4  11  620.02   41.15
  -4  -4  11  578.77   40.70
   8  -4  11  540.60   43.71
  -4  -4  12   47.13    7.97
  -4  -4  12   61.34    9.49
   8  -4  12   37.55    8.67
  -4  -4  13  221.53   17.40
  -4  -4  13  252.41   19.32
   8  -4  13  246.24   20.46
   8  -4  14    5.84    2.93
  -4  -4  14    5.25    3.20
   8  -4  14    6.85    3.07
   8  -4  15  147.44   10.98
  -3  -5 -15   80.77    7.12
   8  -3 -15   91.33    8.10
   8  -3 -14  304.13   19.98
  -3  -5 -14  333.58   21.21
   8  -3 -13   46.63    6.85
  -3  -5 -13   48.89    7.13
   8  -3 -12  205.90   18.44
  -3  -5 -12  228.36   18.70
   8  -3 -11  210.74   20.18
   8  -3 -10   67.69   11.77
  -3  -5 -10   77.33   11.91
  -3  -5  -9   62.43   11.09
  -3  -5  -9   76.70   12.97
   8  -3  -9   59.01   11.49
   8  -3  -8   89.35   18.63
  -3  -5  -8  120.70   15.95
  -3  -5  -8   77.98   13.55
  -3  -5  -8  101.41   24.52
   8  -3  -8  119.41   15.26
   8  -3  -7   28.16    8.09
   8  -3  -7   41.94    9.07
   8  -3  -7   39.13   13.06
  -3  -5  -7   36.48   15.25
  -3  -5  -7   27.55    8.40
   8  -3  -6 1179.37   69.07
   8  -3  -6 1034.44   83.54
  -3  -5  -6 1110.53   65.81
  -3  -5  -6 1003.61   92.22
  -3  -5  -6  970.36   96.83
  -3  -5  -6 1182.73   69.92
  -3  -5  -5  347.57   26.02
   8  -3  -5  361.04   27.86
  -3  -5  -5  358.09   27.66
  -3  -5  -4  526.99   36.74
   8  -3  -4  529.88   40.10
  -3  -5  -4  571.06   36.06
  -3  -5  -4  552.76   71.79
   8  -3  -4  548.28   37.34
  -3  -5  -3  272.95   21.30
  -3  -5  -3  283.44   22.11
  -3  -5  -3  280.83   52.75
   8  -3  -3  275.29   24.63
  -3  -5  -2  198.02   17.07
   8  -3  -2  214.43   20.29
  -3  -5  -2  244.45   52.00
  -3  -5  -2  197.10   17.48
  -3  -5  -1  141.88   14.05
   8  -3  -1  152.36   16.27
  -3  -5  -1  150.97   16.84
  -3  -5   0   82.44   33.90
  -3  -5   0   82.08   10.14
   8  -3   0   75.94   11.58
  -3  -5   0   96.35   13.19
   8  -3   1  530.11   48.30
  -3  -5   1  429.30   74.36
  -3  -5   1  495.87   33.99
  -3  -5   1  568.67   39.47
   8  -3   1  497.41   36.32
   8  -3   2  251.26   31.23
  -3  -5   2  273.46   24.73
  -3  -5   2  230.62   50.95
   8  -3   2  245.20   22.40
   8  -3   2  243.73   20.78
  -3  -5   3 1168.61   71.29
  -3  -5   3 1014.47  110.61
   8  -3   3 1163.39   83.46
   8  -3   3 1047.20   65.11
  -3  -5   4    5.37   14.39
  -3  -5   4    7.15    6.55
   8  -3   4   12.14    5.75
   8  -3   4    2.38    6.39
   8  -3   5  393.82   44.34
  -3  -5   5  308.19   53.63
  -3  -5   5  343.25   34.02
  -3  -5   5  461.10   31.55
   8  -3   5  466.99   32.87
   8  -3   6  180.36   30.38
  -3  -5   6  163.82   35.36
  -3  -5   6  148.00   21.22
   8  -3   6  229.38   21.34
  -3  -5   6  231.00   20.02
   8  -3   7  421.16   48.39
  -3  -5   7  326.98   32.58
   8  -3   7  398.42   33.43
   8  -3   7  429.56   33.74
  -3  -5   7  416.35   31.07
   8  -3   8  410.09   33.05
   8  -3   8  484.36   36.78
  -3  -5   8  423.91   32.74
  -3  -5   8  369.42   49.30
   8  -3   9  104.37   15.83
  -3  -5   9  116.56   14.28
   8  -3  10   52.07   10.94
  -3  -5  10   41.90   10.94
  -3  -5  10   67.16   11.63
  -3  -5  10   42.32    8.13
  -3  -5  11  140.33   15.54
   8  -3  11  140.29   16.96
  -3  -5  11  130.71   13.45
  -3  -5  11  171.50   17.28
   8  -3  12  176.26   17.69
  -3  -5  12  181.48   17.17
  -3  -5  12  196.05   17.32
   8  -3  13   25.95    5.67
  -3  -5  13   37.89    6.26
  -3  -5  14  225.58   16.71
   8  -3  15    3.64    1.80
   8  -2 -14  153.54   12.07
  -2  -6 -14  127.51   10.24
  -2  -6 -13   16.81    3.90
  -2  -6 -12  172.39   14.67
  -2  -6 -11  112.52   11.94
   8  -2 -10  157.43   17.85
  -2  -6 -10  151.97   19.29
  -2  -6  -9  139.52   18.09
   8  -2  -9  109.99   13.50
   8  -2  -8  378.74   42.32
   8  -2  -8  346.84   32.10
  -2  -6  -8  364.99   30.25
   8  -2  -7  233.38   35.00
  -2  -6  -7  271.54   26.07
   8  -2  -7  335.51   29.12
  -2  -6  -6    1.02    4.40
   8  -2  -6    3.22    3.86
  -2  -6  -6    6.95    4.54
   8  -2  -5  411.16   34.66
  -2  -6  -5  462.98   32.36
  -2  -6  -5  480.19   34.55
   8  -2  -5  464.89   34.89
  -2  -6  -5  442.22   61.53
   8  -2  -4    1.97    4.58
  -2  -6  -4   -0.69    3.63
   8  -2  -4   -0.91    3.64
  -2  -6  -4   -5.11    8.66
   8  -2  -3  942.01   59.78
  -2  -6  -3  958.81   56.59
  -2  -6  -3  889.22   56.41
   8  -2  -3 1005.52   59.46
  -2  -6  -3  763.85   97.15
   8  -2  -2   24.80    7.22
  -2  -6  -2   36.52    6.83
  -2  -6  -2   30.92    6.43
   8  -2  -2   32.05    7.17
  -2  -6  -2   44.33   24.07
   8  -2  -1 1016.49   61.43
  -2  -6  -1  973.79   58.07
  -2  -6  -1  969.68   58.50
   8  -2  -1  978.96   59.82
   8  -2   0    5.08    4.77
   8  -2   0    2.30    6.78
  -2  -6   0   -7.58   12.87
  -2  -6   0    4.82    3.77
   8  -2   0   12.54    4.69
  -2  -6   0   11.05    6.43
   8  -2   1  431.71   29.84
   8  -2   1  428.87   43.71
  -2  -6   1  268.09   61.10
  -2  -6   1  423.64   28.26
   8  -2   1  439.18   31.39
  -2  -6   1  299.93   31.91
   8  -2   2  385.76   42.50
  -2  -6   2  283.26   31.30
  -2  -6   2  487.40   75.80
   8  -2   2  412.42   30.26
   8  -2   2  400.06   28.55
   8  -2   3   12.69    9.18
  -2  -6   3   19.73    9.00
   8  -2   3   20.49    6.04
  -2  -6   3   18.20   16.30
   8  -2   3   19.05    4.95
   8  -2   4 1086.34   85.30
   8  -2   4 1220.21   66.18
  -2  -6   4  920.19   69.25
   8  -2   4 1027.97   62.90
  -2  -6   4 1028.63  108.78
   8  -2   5   29.12   12.63
  -2  -6   5   21.58    8.53
  -2  -6   5   14.72   15.60
   8  -2   5   18.93    5.46
  -2  -6   5   16.60    6.78
   8  -2   6  715.56   69.60
   8  -2   6  673.66   46.44
  -2  -6   6  753.67   48.84
  -2  -6   6  747.71   52.10
   8  -2   7  144.36   29.72
  -2  -6   7  159.49   19.35
   8  -2   7  175.24   17.81
  -2  -6   7  207.78   20.03
   8  -2   8  162.00   30.47
   8  -2   8  152.92   17.71
   8  -2   8  170.78   18.26
  -2  -6   8  161.83   18.34
  -2  -6   8  187.14   19.70
   8  -2   9   18.44    6.45
  -2  -6   9   29.03    8.45
  -2  -6   9   21.53    8.77
  -2  -6   9   11.46    5.66
  -2  -6  10  321.92   26.65
  -2  -6  10  252.21   23.52
   8  -2  10  262.93   24.18
  -2  -6  11  251.65   21.42
  -2  -6  11  279.03   23.13
  -2  -6  12  292.32   21.48
  -2  -6  12  305.32   23.13
  -2  -6  13  146.88   11.68
   8  -1 -13   84.48    8.58
   8  -1 -12    1.64    2.53
   8  -1 -12   -0.60    3.55
  -1  -7 -11  488.96   31.84
   8  -1 -11  572.64   37.21
  -1  -7 -10   62.01    8.26
   8  -1 -10   59.08   11.48
  -1  -7 -10   78.49   13.15
  -1  -7  -9  910.69   45.59
  -1  -7  -9  695.05   52.96
  -1  -7  -8  400.71   28.77
   8  -1  -8  374.99   34.03
  -1  -7  -8  434.00   36.37
   8  -1  -7   30.15    9.04
  -1  -7  -7   30.38    9.35
   8  -1  -7   27.56    8.70
   8  -1  -6  119.72   16.75
  -1  -7  -6  135.83   15.09
  -1  -7  -6  149.07   18.51
   8  -1  -6  113.69   15.86
   8  -1  -5  150.46   18.23
  -1  -7  -5  148.74   15.83
   8  -1  -5  153.23   17.30
   8  -1  -4  273.51   25.39
  -1  -7  -4  282.02   23.13
   8  -1  -4  295.88   25.18
   8  -1  -3  268.01   24.40
  -1  -7  -3  267.57   22.15
   8  -1  -3  268.05   23.44
   8  -1  -2  717.04   49.22
  -1  -7  -2  753.24   47.17
   8  -1  -2  762.63   49.06
   8  -1  -1  584.79   40.70
   8  -1  -1  599.19   40.17
  -1  -7  -1  563.70   38.40
   8  -1   0 1662.91  113.65
   8  -1   0 1647.21   92.54
  -1  -7   0 1581.98   90.85
   8  -1   0 1635.35   93.09
  -1  -7   1   -7.54   18.08
   8  -1   1    0.84    3.65
   8  -1   1    5.21    6.99
   8  -1   1    0.83    4.57
  -1  -7   2  104.45   15.86
   8  -1   2  150.12   15.91
   8  -1   2  158.54   26.81
  -1  -7   3  849.30   60.02
   8  -1   3  935.25   57.52
   8  -1   3  987.68   79.03
  -1  -7   4  337.08   29.82
   8  -1   4  335.88   27.14
   8  -1   4  293.84   40.68
  -1  -7   5  247.33   25.18
   8  -1   5  276.80   24.33
   8  -1   5  259.87   38.14
  -1  -7   5  288.77   24.97
   8  -1   6  191.17   32.26
  -1  -7   6  135.84   16.83
  -1  -7   6  143.25   17.80
   8  -1   7   96.87   24.08
  -1  -7   7  137.11   16.57
  -1  -7   7  138.09   16.92
  -1  -7   8  583.52   41.41
  -1  -7   8  677.60   41.62
  -1  -7   9  155.28   19.43
  -1  -7   9  256.51   21.46
  -1  -7  10   24.59    7.01
  -1  -7  10   12.78    5.65
  -1  -7  11  996.55   59.56
  -1  -7  11  984.88   59.98
  -1  -7  12   48.10    7.29
  -1  -7  12   43.74    6.97
  -1  -7  12   40.95    6.72
  -1  -7  13  277.07   19.45
  -1  -7  13  282.62   18.86
   8   0 -12  238.61   18.07
   8   0 -11  130.25   13.98
   8   0 -10  222.90   19.22
   8   0 -10  227.84   22.01
   0  -8  -9    1.34    5.57
   8   0  -9    1.27    4.29
   8   0  -9    6.10    4.05
   0  -8  -9   -0.69    3.81
   0  -8  -8  199.96   24.09
   8   0  -8  180.28   21.63
   8   0  -8  203.61   19.66
   0  -8  -8  190.86   17.68
   0  -8  -7  139.88   20.34
   8   0  -7  205.53   22.30
   8   0  -7  162.02   17.73
   0  -8  -7  191.19   17.16
   0  -8  -6  579.57   43.35
   8   0  -6  499.18   40.15
   8   0  -6  487.42   36.32
   0  -8  -6  496.87   34.47
   0  -8  -5  182.03   18.50
   0  -8  -5  220.83   23.94
   8   0  -5  212.37   22.13
   8   0  -5  198.99   19.31
   0  -8  -5  207.64   17.92
   0  -8  -4  382.51   30.52
   8   0  -4  464.60   35.45
   8   0  -4  438.87   31.91
   0  -8  -4  424.13   29.42
   0  -8  -3   24.19    6.72
   8   0  -3   24.41    7.57
   0  -8  -3   33.84    6.24
   8   0  -3   32.97    7.30
   8   0  -2  148.93   15.68
   0  -8  -2  147.09   15.41
   8   0  -2  167.38   18.06
   0  -8  -2  142.74   13.72
   8   0  -1   76.67   10.52
   0  -8  -1   70.12    9.32
   8   0  -1   63.62   10.94
   0  -8  -1   68.38   10.26
   0  -8  -1   68.32    8.68
   0  -8   0   31.47    7.30
   0  -8   0   41.98    7.18
   8   0   0   34.08    8.00
   8   0   1  617.09   61.02
   0  -8   1  682.96   41.67
   8   0   1  617.51   44.04
   8   0   2   25.87   12.54
   0  -8   2   35.18    7.02
   8   0   2   33.71    8.42
   8   0   3 1161.39   96.18
   0  -8   3 1253.68   72.39
   8   0   3 1274.64   75.80
   8   0   4   -3.08    7.41
   8   0   4    8.28    5.85
   0  -8   4   11.34    4.82
   0  -8   4    4.04    5.00
   8   0   5  100.47   23.53
   0  -8   5  125.21   15.06
   0  -8   5   84.67   13.13
   0  -8   5   97.10   11.95
   8   0   5   94.84   13.56
   0  -8   6   48.71   10.03
   0  -8   6   30.61    9.49
   0  -8   6   37.14    9.16
   0  -8   6   46.23    8.29
   0  -8   7   45.91    9.90
   0  -8   7   34.49   10.05
   0  -8   7   50.76    9.73
   0  -8   7   32.22    7.87
   0  -8   8  126.77   14.72
   0  -8   8  146.10   16.73
   0  -8   8  145.20   17.12
   0  -8   9  233.01   19.84
   0  -8   9  158.00   17.04
   0  -8   9  135.58   17.87
   0  -8   9  272.13   19.88
   0  -8  10  166.79   15.58
   0  -8  10  129.55   13.81
   0  -8  10  162.86   14.81
   0  -8  10  164.68   16.88
   0  -8  11  297.73   21.63
   0  -8  11  301.31   22.39
   0  -8  11  317.39   23.72
   0  -8  12  170.10   13.50
   0  -8  12  170.70   14.26
   8   1 -12   60.14    6.60
   8   1 -11   56.30    7.89
   8   1 -10  174.22   16.57
   1  -9 -10  134.25   12.56
   8   1  -9   40.64    9.74
   1  -9  -9   53.94    8.03
   1  -9  -8  145.92   14.84
   8   1  -8  157.07   18.86
   1  -9  -8  156.86   20.69
   1  -9  -7  459.67   31.24
   8   1  -7  467.13   36.58
   1  -9  -6    7.09    4.11
   8   1  -6    9.58    6.60
   1  -9  -6   16.23    8.86
   1  -9  -5  870.72   53.65
   8   1  -5  839.79   58.82
   1  -9  -5  950.67   64.16
   1  -9  -4   10.77    5.11
   8   1  -4   -1.13    5.06
   1  -9  -4    7.50    5.20
   1  -9  -3  501.13   33.63
   8   1  -3  494.27   38.53
   1  -9  -3  478.29   35.31
   1  -9  -3  559.58   43.65
   1  -9  -2   24.29    5.65
   1  -9  -2   29.77   10.27
   1  -9  -2   23.48    6.40
   8   1  -2   17.88    7.45
   1  -9  -1   30.44    6.24
   8   1  -1   14.17    6.64
   1  -9  -1   23.39    5.94
   8   1   0   12.82    6.43
   1  -9   0   19.57    5.50
   1  -9   1  170.86   17.55
   8   1   1  144.64   17.29
   8   1   1  154.84   28.12
   1  -9   1  180.78   16.39
   1  -9   2  699.15   46.83
   1  -9   2  723.81   45.53
   8   1   2  696.92   47.98
   8   1   2  751.18   67.87
   1  -9   3  460.49   33.76
   8   1   3  505.03   35.27
   1  -9   3  505.21   32.81
   1  -9   4  539.35   38.28
   1  -9   4  463.03   38.93
   8   1   4  559.62   38.87
   1  -9   4  532.53   36.28
   1  -9   5  238.79   22.30
   1  -9   5  198.95   21.62
   8   1   5  258.21   23.18
   1  -9   5  226.54   20.48
   1  -9   6  216.69   21.86
   1  -9   6  248.51   22.42
   1  -9   6  245.59   21.43
   1  -9   6  241.18   20.40
   1  -9   7    0.90    3.59
   1  -9   7    3.89    4.58
   1  -9   7    5.51    4.53
   1  -9   7    2.86    4.02
   1  -9   8   72.26   10.72
   1  -9   8  110.34   12.26
   1  -9   8   94.42   13.03
   1  -9   8   84.19   11.02
   1  -9   8   77.99   10.93
   1  -9   9   50.25    7.53
   1  -9   9   50.38    7.74
   1  -9   9   29.26    7.25
   1  -9   9   35.64    7.03
   1  -9   9   27.85    6.69
   1  -9  10  199.61   17.21
   1  -9  10  145.88   14.76
   1  -9  10  178.61   14.94
   1  -9  10  195.87   14.70
   1  -9  11    5.67    2.32
   1  -9  11    8.59    2.87
   8   2 -11  221.02   15.47
   8   2 -10  105.63   10.98
   2 -10  -9  208.40   16.80
   8   2  -9  265.53   21.25
   2 -10  -8   62.49    8.54
   8   2  -8   67.59   11.15
   2 -10  -7   57.81    8.65
   8   2  -7   94.63   13.31
   2 -10  -6   35.32    6.63
   8   2  -6   38.50    9.25
   2 -10  -5   76.84   10.02
   8   2  -5   78.71   13.04
   2 -10  -4  491.92   33.02
   8   2  -4  539.01   38.38
   2 -10  -3  178.65   16.41
   2 -10  -3  200.43   25.41
   8   2  -3  183.03   19.85
   2 -10  -2  601.14   38.23
   8   2  -2  573.06   41.86
   2 -10  -2  565.68   39.78
   2 -10  -2  594.64   49.17
   8   2  -1   62.09   10.91
   2 -10  -1   71.54    9.98
   2 -10  -1   82.99   16.16
   2 -10  -1   81.12   11.77
   8   2   0  740.58   50.89
   2 -10   0  785.47   50.20
   2 -10   0  694.00   57.92
   2 -10   0  823.30   48.98
   2 -10   1    4.83    6.42
   2 -10   1    7.61    4.99
   2 -10   1    9.92    4.75
   8   2   1    8.23    5.28
   8   2   2  152.23   17.09
   2 -10   2  195.49   18.25
   2 -10   2  171.18   16.00
   2 -10   3  163.92   15.86
   2 -10   3  158.29   17.06
   2 -10   3  129.74   18.41
   8   2   3  161.44   17.41
   2 -10   4  556.42   38.97
   2 -10   4  570.05   37.77
   2 -10   4  541.76   35.64
   2 -10   5  175.28   18.64
   2 -10   5  221.49   19.15
   2 -10   5  206.30   17.38
   2 -10   6  170.34   14.92
   2 -10   6  162.26   15.94
   2 -10   6  165.97   15.20
   2 -10   6  127.04   15.23
   2 -10   7   51.08    8.47
   2 -10   7   66.00    8.89
   2 -10   7   58.11    8.76
   2 -10   8   64.28    9.58
   2 -10   8   80.30    9.82
   2 -10   9  130.49   11.42
   2 -10   9   81.84    9.72
   2 -10  10    4.22    2.38
   2 -10  10    6.33    2.32
   8   3  -9   33.03    5.15
   8   3  -8   92.42   10.70
   8   3  -7   92.86   11.61
   3 -11  -7   71.70    8.64
   3 -11  -6  119.79   11.73
   3 -11  -5   13.54    4.28
   3 -11  -4  260.87   28.79
   3 -11  -4  300.43   22.02
   3 -11  -3   -4.50    7.19
   3 -11  -2  203.04   26.33
   3 -11  -1  171.04   23.84
   3 -11   0   10.34    5.09
   3 -11   0    4.87    6.78
   3 -11   0   20.24    5.89
   3 -11   1  478.92   32.76
   3 -11   1  517.11   31.60
   3 -11   2    8.63    4.82
   3 -11   2    9.73    4.29
   3 -11   3  265.89   23.84
   8   3   3  314.20   24.87
   3 -11   3  342.73   24.24
   3 -11   4    2.82    3.59
   3 -11   4    3.18    3.50
   8   3   4    6.63    4.85
   3 -11   5  111.48   11.81
   3 -11   5   89.35   10.56
   3 -11   6    9.85    4.08
   3 -11   7  145.48   13.42
   3 -11   8   75.08    8.13
   8   4  -6   49.20    7.02
   8   4  -5  315.27   23.13
   8   4  -4    0.61    2.30
   8   4  -3  286.63   22.13
   8   4  -2    1.88    3.11
   8   4  -1   40.28    7.11
   8   4   0   12.17    4.60
   8   4   1  161.31   14.99
   4 -12   2  501.41   32.51
   8   4   2  511.29   33.43
   4 -12   3  115.69   11.38
   4 -12   4  188.68   15.28
   4 -12   5   27.37    4.90
   4 -12   6   54.56    6.27
   8   5  -1   18.30    3.59
 -12   3  -3    2.88    3.02
 -12   3  -2  515.95   33.60
 -12   3  -1   37.76    6.48
 -12   3   0  247.63   18.97
 -12   3   1    1.89    2.48
 -11   2  -6  143.38   14.19
 -11   2  -5   33.77    7.31
 -11   2  -5   36.70    6.02
 -11   2  -4  329.19   23.22
 -11   2  -3  163.05   16.86
 -11   2  -2  364.05   27.61
 -11   2  -2  336.46   22.80
 -11   2  -1  503.49   33.59
 -11   2  -1  432.43   28.64
 -11   2   0    6.73    4.84
 -11   2   0    2.30    2.76
 -11   2   1  274.01   21.47
 -11   2   1  234.24   18.17
 -11   2   2    5.96    4.96
   9 -11   2    0.54    2.53
 -11   2   2    3.95    3.25
   9 -11   3  128.08   12.36
 -11   2   3  125.47   12.91
 -11   2   3  136.22   12.34
 -11   2   4   17.29    5.20
   9 -11   4   18.33    4.62
 -11   2   4   17.73    4.35
   9 -11   5  153.44   14.14
 -11   2   5  175.67   15.30
 -11   2   5  205.95   15.47
   9 -11   6    5.59    2.70
 -11   2   6   11.29    3.45
 -11   2   7  294.78   20.07
 -10   1  -8   43.98    6.74
 -10   1  -8   49.45    7.29
 -10   1  -7  267.48   23.02
 -10   1  -7  380.99   26.01
 -10   1  -6    3.42    3.67
 -10   1  -6    2.75    4.68
 -10   1  -5  224.91   21.97
 -10   1  -4   10.80    4.36
 -10   1  -4   16.28    6.13
 -10   1  -3  140.24   13.37
 -10   1  -2    8.41    4.16
 -10   1  -1  254.17   20.16
 -10   1  -1  249.32   23.16
 -10   1   0   18.59    5.31
 -10   1   0   22.00    7.28
   9 -10   1  532.87   33.55
 -10   1   1  462.43   33.23
 -10   1   1  504.80   36.26
   9 -10   2  212.03   17.64
 -10   1   2  192.91   17.76
 -10   1   2  217.29   20.16
   9 -10   3  140.10   13.54
 -10   1   3  126.78   13.55
 -10   1   3  127.44   14.70
   9 -10   4  211.89   17.60
 -10   1   4  204.49   18.94
 -10   1   4  199.04   18.17
   9 -10   5   23.07    5.60
 -10   1   5   21.15    6.58
   9 -10   6  255.67   21.35
 -10   1   6  398.84   25.91
 -10   1   7    7.96    4.38
 -10   1   8   92.20   10.58
  -9   0 -11   91.44    8.05
  -9   0 -10    5.67    3.06
  -9   0  -9  333.39   26.96
  -9   0  -9  428.32   26.22
  -9   0  -8   67.23   10.94
  -9   0  -8   88.74   10.91
  -9   0  -7  240.47   21.52
  -9   0  -7  227.30   21.29
  -9   0  -6   79.55   12.89
   9  -9  -6  129.25   12.77
   9  -9  -5   30.49    6.59
  -9   0  -5   14.83    6.52
  -9   0  -5   22.29    6.41
  -9   0  -4  642.93   47.07
  -9   0  -4  645.12   42.39
   9  -9  -4  678.52   42.63
  -9   0  -3   10.09    6.50
  -9   0  -3   19.97    5.79
  -9   0  -2  276.57   26.16
  -9   0  -2  280.80   22.73
  -9   0  -1  337.27   26.07
  -9   0   0  167.44   16.74
  -9   0   1  119.78   15.64
   9  -9   1  115.08   12.16
  -9   0   1  132.70   14.41
  -9   0   2  153.73   17.78
   9  -9   2  167.22   14.92
  -9   0   2  150.37   16.01
  -9   0   3  166.55   18.19
   9  -9   3  164.32   15.09
  -9   0   4  933.37   57.82
   9  -9   4  877.24   53.55
  -9   0   5  783.89   48.50
   9  -9   5  671.73   43.95
   9  -9   6  311.28   25.67
  -9   0   6  323.13   25.36
   9  -9   6  240.50   20.72
  -9   0   7   51.41    9.83
   9  -9   7   51.91    9.66
  -9   0   8  140.16   15.25
   9  -9   8  121.97   15.07
   9  -9   9   17.32    5.25
  -9   0   9   14.41    5.56
   9  -9  10   18.62    4.59
  -8  -1 -12  290.79   19.16
   9  -8 -11    3.29    2.37
   9  -8 -10  203.70   16.76
  -8  -1 -10  189.06   18.03
   9  -8  -9   36.22    7.51
  -8  -1  -9   36.65    8.33
  -8  -1  -8  113.91   12.42
   9  -8  -8   67.84   11.27
  -8  -1  -8   98.27   13.83
  -8  -1  -7    0.91    4.75
   9  -8  -7    0.95    4.54
  -8  -1  -7   -0.96    5.00
   9  -8  -6  260.58   22.26
  -8  -1  -6  242.85   20.44
  -8  -1  -5  174.20   20.91
   9  -8  -5  219.06   20.91
  -8  -1  -5  227.57   19.96
  -8  -1  -4  459.57   37.78
   9  -8  -4  445.35   34.89
   9  -8  -4  550.27   44.64
  -8  -1  -4  506.42   34.82
  -8  -1  -3  479.31   37.74
   9  -8  -3  484.73   34.88
  -8  -1  -3  457.72   33.59
   9  -8  -3  460.15   43.67
  -8  -1  -2  772.37   50.93
   9  -8  -2  675.87   46.35
  -8  -1  -2  678.00   45.75
   9  -8  -2  741.71   60.58
  -8  -1  -1  173.93   19.81
   9  -8  -1  184.28   18.15
  -8  -1  -1  174.79   17.48
   9  -8  -1  164.41   26.40
  -8  -1   0   11.70    6.78
  -8  -1   0   10.88    5.34
   9  -8   0   19.03   11.78
  -8  -1   1   16.20    6.28
   9  -8   2   27.16   12.60
  -8  -1   3  527.78   39.29
   9  -8   3  552.94   48.79
  -8  -1   4    9.83    6.68
   9  -8   4    8.37    8.53
  -8  -1   5  973.15   62.43
  -8  -1   6    4.94    5.56
  -8  -1   7  546.19   40.11
  -8  -1   8  184.66   19.90
  -8  -1   9   59.52   10.56
   9  -8  10  177.36   17.82
  -8  -1  10  172.51   16.41
   9  -8  11   56.18    8.24
  -8  -1  11   48.60    6.91
   9  -7 -13  161.80   12.12
  -7  -2 -13  207.08   13.50
   9  -7 -12  323.96   22.57
  -7  -2 -12  345.71   23.28
  -7  -2 -11  220.33   18.98
   9  -7 -11  194.88   18.18
   9  -7 -11  238.70   19.86
  -7  -2 -10   30.91    7.86
   9  -7 -10   28.95    7.60
   9  -7 -10   31.78    8.15
  -7  -2  -9   20.53    7.51
   9  -7  -9   18.01    6.56
   9  -7  -9   23.14    7.28
  -7  -2  -8   18.02    6.93
   9  -7  -8   29.65    9.06
   9  -7  -8   21.16    7.54
  -7  -2  -7  171.68   18.57
   9  -7  -7  153.70   19.08
  -7  -2  -7  139.04   15.85
  -7  -2  -6  189.88   18.45
   9  -7  -6  201.03   21.51
   9  -7  -6  206.21   21.08
  -7  -2  -5 1766.10   89.76
   9  -7  -5 1774.72   98.04
   9  -7  -5 1779.97   93.25
  -7  -2  -4  361.92   28.23
  -7  -2  -4  326.61   30.46
  -7  -2  -4  406.32   46.86
   9  -7  -4  342.70   34.90
   9  -7  -4  381.39   30.54
  -7  -2  -3 1333.89   78.05
  -7  -2  -3 1381.42   82.49
  -7  -2  -3 1234.83   96.41
   9  -7  -3 1390.11   91.07
   9  -7  -3 1245.86   79.02
  -7  -2  -2  179.81   27.55
  -7  -2  -2  181.21   20.82
   9  -7  -2  210.21   20.28
   9  -7  -2  192.02   28.20
  -7  -2  -2  208.15   19.49
  -7  -2  -1   27.12    8.43
   9  -7  -1   24.34    7.29
  -7  -2  -1   27.76    7.25
   9  -7  -1   24.66   12.10
  -7  -2   0  387.68   30.14
   9  -7   0  315.91   26.86
  -7  -2   0  340.59   26.97
  -7  -2   1   56.21   11.18
   9  -7   2  374.79   39.77
  -7  -2   2  364.07   30.52
   9  -7   3  754.47   58.62
   9  -7   3  649.14   46.36
   9  -7   4   84.85   13.01
   9  -7   4   99.93   17.94
   9  -7   5  612.68   48.69
   9  -7   5  625.38   44.50
  -7  -2   5  593.27   43.86
   9  -7   6  579.31   46.72
   9  -7   6  665.77   46.76
  -7  -2   6  645.58   45.98
   9  -7   7   43.75   10.78
  -7  -2   7   52.40   11.13
   9  -7   8  696.26   44.07
  -7  -2   8  624.50   41.47
   9  -7   9  205.43   23.51
   9  -7   9  246.21   20.10
  -7  -2   9  248.42   23.94
   9  -7  10  224.36   22.72
   9  -7  10  225.27   18.59
  -7  -2  10  253.90   21.74
   9  -7  11    9.48    3.30
   9  -7  11   12.10    4.77
  -7  -2  11   15.67    4.96
  -7  -2  12   52.87    6.70
   9  -7  12   52.87    7.75
   9  -7  12   42.95    5.58
  -6  -3 -14    1.88    1.38
   9  -6 -13  104.56   10.18
  -6  -3 -13  124.84   10.51
   9  -6 -12   10.78    4.55
   9  -6 -12   14.80    5.11
   9  -6 -11  286.62   25.34
   9  -6 -11  321.96   25.42
   9  -6 -10    3.42    4.54
   9  -6 -10    3.18    5.08
   9  -6  -9  215.84   24.13
   9  -6  -9  214.19   23.34
   9  -6  -8  222.55   25.00
   9  -6  -8  257.71   25.48
   9  -6  -7  220.53   24.22
   9  -6  -7  171.23   20.02
   9  -6  -7  230.51   23.20
   9  -6  -6  409.52   33.90
  -6  -3  -6  370.84   29.58
  -6  -3  -6  339.89   28.44
   9  -6  -6  327.69   31.12
   9  -6  -6  448.21   33.53
  -6  -3  -5  133.74   14.94
  -6  -3  -5  103.99   24.73
  -6  -3  -5   69.11   12.44
   9  -6  -5  114.46   17.77
   9  -6  -5  130.98   16.78
  -6  -3  -5  138.71   33.61
   9  -6  -4  816.83   58.68
   9  -6  -4  809.07   52.57
  -6  -3  -4  865.44   73.16
  -6  -3  -4  947.06  101.09
  -6  -3  -3  151.52   26.76
  -6  -3  -3  153.11   18.39
   9  -6  -3  150.73   22.72
   9  -6  -3  162.98   18.16
  -6  -3  -3  134.51   41.08
  -6  -3  -2  131.60   16.61
   9  -6  -2  117.72   21.49
   9  -6  -2  131.73   16.13
  -6  -3  -2   97.63   37.69
  -6  -3  -1   55.15   11.00
   9  -6  -1   31.31   13.90
   9  -6  -1   53.82   10.18
  -6  -3   0  535.24   36.60
  -6  -3   0  540.36   39.10
  -6  -3   0  355.33   76.62
   9  -6   0  393.02   47.24
   9  -6   0  515.66   37.56
  -6  -3   1   33.73   24.99
  -6  -3   1   72.75   12.05
   9  -6   1   62.12   10.87
  -6  -3   1   66.49   10.49
  -6  -3   2  684.80   97.95
   9  -6   2  727.98   61.23
   9  -6   2  724.85   48.24
  -6  -3   2  726.01   49.67
  -6  -3   3  186.43   46.74
   9  -6   3  151.08   17.06
   9  -6   3  151.13   23.96
  -6  -3   3  147.18   17.94
  -6  -3   4  890.33  105.81
   9  -6   4  956.97   62.45
   9  -6   4 1006.78   71.39
  -6  -3   4  993.89   63.68
  -6  -3   5  149.25   36.98
   9  -6   5  134.98   20.07
   9  -6   5  170.10   18.86
   9  -6   6  151.26   19.52
   9  -6   6  145.39   18.08
   9  -6   7  134.74   17.16
   9  -6   7  155.57   19.45
  -6  -3   7  123.90   17.81
   9  -6   8   62.06   10.11
  -6  -3   8   73.32   13.60
  -6  -3   9  294.92   27.18
   9  -6   9  352.33   25.16
  -6  -3  10    6.02    5.47
   9  -6  10    9.39    5.46
  -6  -3  10    9.40    5.10
   9  -6  10    5.18    3.90
   9  -6  11  337.13   28.71
   9  -6  11  373.60   25.74
  -6  -3  11  388.72   27.45
   9  -6  12   67.94    9.36
  -6  -3  12   62.91    8.21
   9  -6  12   73.16    7.98
   9  -6  13  117.55    9.41
  -5  -4 -14   54.66    5.60
  -5  -4 -13   32.21    5.08
  -5  -4 -12  188.43   16.26
   9  -5 -12  205.24   16.86
   9  -5 -11   10.98    5.35
  -5  -4 -10  360.33   27.59
   9  -5 -10  269.57   25.81
  -5  -4  -9    1.09    4.88
   9  -5  -9    7.02    5.96
  -5  -4  -8  399.40   35.29
   9  -5  -8  535.87   38.40
   9  -5  -7   28.98    8.85
   9  -5  -7   24.47    7.53
  -5  -4  -7   18.98    7.25
  -5  -4  -6  277.44   43.08
  -5  -4  -6  370.59   49.97
   9  -5  -6  314.17   27.32
  -5  -4  -6  308.00   25.72
   9  -5  -6  261.66   26.79
  -5  -4  -5   99.33   30.80
  -5  -4  -5   88.64   22.98
  -5  -4  -5  115.40   14.04
   9  -5  -5   89.75   16.07
  -5  -4  -4  181.08   43.40
  -5  -4  -4  184.55   30.68
  -5  -4  -4   86.15   13.29
  -5  -4  -4  161.34   15.98
   9  -5  -4  144.08   20.86
  -5  -4  -3  204.36   48.30
  -5  -4  -3  184.93   20.17
  -5  -4  -3  210.74   19.26
   9  -5  -3  216.00   27.61
  -5  -4  -2  449.34   75.98
  -5  -4  -2  502.56   37.92
   9  -5  -2  529.22   48.67
  -5  -4  -2  506.75   35.58
  -5  -4  -1  478.54   35.73
  -5  -4  -1  430.44   32.04
   9  -5  -1  439.04   45.85
  -5  -4   0    8.46   14.37
  -5  -4   0   13.45    7.16
  -5  -4   0   14.35    5.45
   9  -5   0   12.36   11.11
  -5  -4   1  112.25   13.72
  -5  -4   1   88.64   37.94
  -5  -4   1  145.07   17.16
  -5  -4   2   -7.37   15.36
   9  -5   2   23.57    6.71
   9  -5   2   19.41   11.90
  -5  -4   2   26.29    8.43
  -5  -4   3  225.62   54.36
   9  -5   3  269.23   23.40
   9  -5   3  255.19   31.64
  -5  -4   3  247.81   24.61
  -5  -4   4   88.58   33.47
   9  -5   4   78.48   12.21
   9  -5   4   70.24   15.64
  -5  -4   4   92.17   14.41
  -5  -4   5  386.02   61.77
  -5  -4   5  463.60   37.52
   9  -5   5  450.11   39.87
   9  -5   5  467.70   35.71
  -5  -4   6    5.02    7.68
   9  -5   6    6.70    5.69
   9  -5   6    2.61    6.27
   9  -5   7  524.53   40.42
   9  -5   7  544.37   41.79
   9  -5   8   22.79    7.83
  -5  -4   9  153.17   17.84
   9  -5   9  118.11   17.06
  -5  -4  10  167.44   17.34
  -5  -4  10  147.85   16.64
   9  -5  10  142.48   17.98
  -5  -4  11   93.51   11.58
  -5  -4  11   95.31   11.01
   9  -5  11   92.17   12.66
  -5  -4  12  181.50   14.72
   9  -5  12  216.72   15.89
  -5  -4  12  214.59   16.87
   9  -5  12  187.44   17.04
  -5  -4  13   62.83    7.32
   9  -5  13   60.38    6.70
   9  -4 -14  377.03   22.98
   9  -4 -13  314.88   21.57
  -4  -5 -13  290.17   19.69
   9  -4 -12  424.59   29.23
  -4  -5 -12  372.53   25.83
   9  -4 -11  333.79   28.68
   9  -4 -11  371.04   26.39
   9  -4 -10   34.75    7.82
  -4  -5 -10   41.27    8.04
   9  -4  -9   12.30    5.82
  -4  -5  -9   19.68    6.79
  -4  -5  -8    1.93    4.63
  -4  -5  -8    7.70    5.60
   9  -4  -8    6.16    5.08
   9  -4  -8    2.75    5.48
   9  -4  -7  105.66   15.90
  -4  -5  -7   62.82   11.70
  -4  -5  -7   99.30   13.47
   9  -4  -7   88.49   13.35
   9  -4  -7   96.34   13.36
  -4  -5  -6   66.76   20.46
  -4  -5  -6   91.40   12.96
   9  -4  -6   82.03   14.31
   9  -4  -6   85.45   14.34
  -4  -5  -5 1047.94  109.78
  -4  -5  -5 1207.85   73.55
   9  -4  -5 1267.79   78.37
   9  -4  -5 1283.19   81.52
  -4  -5  -4  272.98   22.68
  -4  -5  -4  213.40   45.92
   9  -4  -4  235.03   28.50
   9  -4  -4  266.83   25.15
  -4  -5  -3 1760.13   97.70
  -4  -5  -3 1797.27  159.16
   9  -4  -3 1777.81  103.52
  -4  -5  -3 1762.37   99.88
  -4  -5  -2  276.88   22.18
  -4  -5  -2  303.47   60.50
   9  -4  -2  293.59   24.95
  -4  -5  -2  193.85   22.02
  -4  -5  -2  273.76   20.76
  -4  -5  -1   37.87    7.42
  -4  -5  -1   39.35    6.98
  -4  -5  -1   30.75    9.01
   9  -4  -1   37.49    8.83
  -4  -5   0  302.96   27.11
  -4  -5   0  309.66   23.95
   9  -4   0  281.77   25.24
  -4  -5   1   78.96   12.82
   9  -4   1   79.58   12.09
  -4  -5   1   57.81    9.52
  -4  -5   2  244.41   21.36
  -4  -5   2  283.19   26.32
  -4  -5   3  343.69   63.36
   9  -4   3  385.64   29.66
  -4  -5   3  403.55   34.23
  -4  -5   4   28.84   20.80
   9  -4   4   26.53    7.01
   9  -4   4   24.63   10.64
  -4  -5   4   29.18    9.84
  -4  -5   5  591.31   81.54
   9  -4   5  799.58   57.19
   9  -4   5  821.92   50.53
  -4  -5   5  631.23   52.04
   9  -4   6  408.01   34.09
   9  -4   6  457.89   32.09
   9  -4   7    2.15    4.82
   9  -4   7    4.41    5.46
  -4  -5   7    2.47    6.11
  -4  -5   8  809.47   55.72
   9  -4   8  848.20   56.62
  -4  -5   9  279.03   26.25
   9  -4   9  266.85   25.74
  -4  -5  10  282.75   23.74
   9  -4  10  221.61   22.53
  -4  -5  11    4.58    4.18
   9  -4  11   14.24    4.94
  -4  -5  11    7.77    4.62
   9  -4  12   51.56    7.32
  -4  -5  12   49.65    7.60
  -4  -5  12   49.73    7.05
  -4  -5  13   80.07    8.22
   9  -4  13   71.46    7.38
   9  -3 -13  640.27   34.38
  -3  -6 -13  514.34   31.38
   9  -3 -12   33.41    6.66
  -3  -6 -12   33.82    5.21
   9  -3 -11  358.44   28.63
  -3  -6 -11  378.22   25.16
   9  -3 -10    4.35    5.22
  -3  -6  -9   18.49    6.82
   9  -3  -9    3.78    5.70
  -3  -6  -9   22.34    6.10
  -3  -6  -8   59.18   11.30
   9  -3  -8   49.32   11.87
  -3  -6  -8   34.82    8.33
   9  -3  -7   18.42    7.97
  -3  -6  -7   12.00    5.68
   9  -3  -7   14.78    6.62
  -3  -6  -7   18.17    7.29
   9  -3  -6  172.23   20.04
  -3  -6  -6  121.39   16.18
   9  -3  -6  175.34   19.83
  -3  -6  -5  941.67   57.31
   9  -3  -5  968.63   62.53
  -3  -6  -5  957.15   60.35
  -3  -6  -5  840.36   92.91
  -3  -6  -4 1623.79   92.84
   9  -3  -4 1725.71   98.46
  -3  -6  -4 1653.79   94.56
  -3  -6  -4 1507.97  140.09
  -3  -6  -3  486.18   32.92
   9  -3  -3  487.62   36.34
  -3  -6  -3  455.61   33.08
  -3  -6  -3  401.75   68.34
  -3  -6  -2  466.21   32.09
   9  -3  -2  447.39   34.89
  -3  -6  -2  467.32   32.59
  -3  -6  -2  461.82   74.29
   9  -3  -1    0.94    4.53
  -3  -6  -1    1.41    3.16
  -3  -6  -1    1.38    3.80
  -3  -6   0  201.11   25.08
  -3  -6   0  137.34   45.46
  -3  -6   0  321.37   23.14
   9  -3   0  316.90   25.68
  -3  -6   1  139.50   19.12
  -3  -6   1  156.40   15.28
  -3  -6   1  131.31   42.15
   9  -3   1  162.27   17.50
  -3  -6   2  375.35   26.15
  -3  -6   2  341.25   65.39
   9  -3   2  379.32   42.03
  -3  -6   2  244.92   28.94
  -3  -6   3   54.04    8.94
  -3  -6   3   46.13   11.79
  -3  -6   3   57.82   26.83
   9  -3   3   70.83   17.73
   9  -3   4  956.02   75.61
  -3  -6   4  750.74   94.75
  -3  -6   4  870.51   52.65
  -3  -6   4  712.24   57.85
   9  -3   4  873.72   53.09
   9  -3   5   20.33    9.24
  -3  -6   5    5.06    6.10
  -3  -6   5   11.54    6.90
   9  -3   5   12.12    5.34
  -3  -6   5   14.04    5.13
  -3  -6   6  170.66   20.92
   9  -3   6  207.19   23.23
   9  -3   6  184.56   18.41
  -3  -6   7  601.51   42.53
   9  -3   7  501.20   40.96
   9  -3   7  589.87   40.17
  -3  -6   8   92.17   13.42
   9  -3   8   70.69   11.29
  -3  -6   9  526.02   41.62
   9  -3   9  479.24   38.72
  -3  -6  10    7.88    5.03
   9  -3  10   10.11    3.89
  -3  -6  10    4.12    4.32
  -3  -6  11  180.45   16.35
  -3  -6  12  153.53   13.37
   9  -2 -13  113.23    8.90
   9  -2 -12  111.29   10.54
   9  -2 -11   36.96    6.88
   9  -2 -10  351.11   29.07
  -2  -7 -10  404.10   25.29
   9  -2  -9   23.53    7.19
  -2  -7  -9   15.77    4.35
  -2  -7  -9   10.49    6.61
   9  -2  -8  362.23   31.23
  -2  -7  -8  385.03   33.28
  -2  -7  -7   19.31    5.43
   9  -2  -7   26.16    8.00
  -2  -7  -7   19.67    7.78
   9  -2  -7   10.85    5.49
  -2  -7  -6  193.69   18.86
  -2  -7  -6  233.07   22.86
   9  -2  -6  207.28   20.60
   9  -2  -6  182.30   20.33
  -2  -7  -5   63.29    9.75
   9  -2  -5   60.52   10.61
   9  -2  -5   53.80   10.48
  -2  -7  -4  120.20   13.64
   9  -2  -4  132.24   15.32
   9  -2  -4  121.27   15.36
  -2  -7  -3   99.55   12.51
   9  -2  -3  119.21   14.69
   9  -2  -3  128.25   14.77
  -2  -7  -2  433.83   31.84
  -2  -7  -2  387.33   71.49
   9  -2  -2  458.17   34.40
   9  -2  -2  488.28   33.96
  -2  -7  -1  370.29   27.78
   9  -2  -1  379.82   28.68
   9  -2  -1  365.80   29.44
  -2  -7   0  189.30   17.82
   9  -2   0  174.55   18.38
   9  -2   0  189.67   17.95
  -2  -7   1  356.90   70.71
   9  -2   1  405.99   29.99
  -2  -7   2   35.67   22.71
   9  -2   2   41.43    8.24
  -2  -7   2   25.49    8.63
   9  -2   2   35.99   12.55
  -2  -7   3  289.28   28.16
   9  -2   3  331.03   26.16
   9  -2   3  338.89   41.97
   9  -2   4  180.41   28.95
  -2  -7   4  139.87   18.26
  -2  -7   5  267.93   25.45
  -2  -7   6   28.84    8.97
   9  -2   7  349.14   31.66
  -2  -7   7  447.36   32.25
  -2  -7   8   88.10   12.08
  -2  -7   9  286.76   23.36
  -2  -7  10  116.99   13.18
  -2  -7  10  105.43   12.04
  -2  -7  11  177.23   15.32
  -2  -7  12  208.26   16.37
  -2  -7  12  247.77   16.79
   9  -1 -11   96.97    9.10
   9  -1 -10  119.47   11.92
   9  -1  -9  174.34   17.11
   9  -1  -9  198.40   17.78
  -1  -8  -9  182.48   20.72
   9  -1  -8   12.83    5.62
   9  -1  -8   21.59    6.52
  -1  -8  -8   17.38    8.20
   9  -1  -7  650.58   42.57
  -1  -8  -7  674.34   47.30
   9  -1  -6   25.04    7.57
   9  -1  -6   15.24    6.07
  -1  -8  -6   19.36    8.01
   9  -1  -5  304.21   28.41
   9  -1  -5  393.51   29.20
  -1  -8  -5  348.69   27.31
  -1  -8  -5  381.93   32.36
   9  -1  -4   12.94    5.77
   9  -1  -4   14.76    5.46
  -1  -8  -4   14.03    5.65
   9  -1  -3  143.95   16.53
   9  -1  -3  151.15   16.10
  -1  -8  -3  140.47   15.08
   9  -1  -2   14.85    6.24
  -1  -8  -2   15.41    5.60
   9  -1  -2   15.21    5.87
  -1  -8  -1  172.53   17.37
   9  -1  -1  204.33   19.09
   9  -1  -1  197.40   19.10
  -1  -8   0  142.24   15.47
   9  -1   0  143.24   16.14
  -1  -8   1  346.16   28.25
   9  -1   1  403.67   29.79
  -1  -8   2  645.29   43.98
   9  -1   2  676.86   63.85
   9  -1   2  658.58   44.11
   9  -1   3  121.80   14.45
   9  -1   4  103.65   13.16
  -1  -8   4   69.46   11.57
  -1  -8   5    6.35    5.45
  -1  -8   6   57.16   10.27
  -1  -8   7    0.80    5.09
  -1  -8   7   -2.03    5.96
  -1  -8   8  201.14   19.58
  -1  -8   9   25.12    6.28
  -1  -8  10  556.63   33.71
  -1  -8  10  513.93   34.24
  -1  -8  11   10.46    3.21
  -1  -8  12   80.27    7.18
   9   0 -10   10.98    3.21
   9   0  -9   14.57    4.74
   9   0  -8   86.06   12.13
   0  -9  -8  119.89   16.42
   9   0  -7   38.10    8.49
   0  -9  -7   34.23   10.59
   9   0  -6  253.60   23.86
   0  -9  -6  252.81   26.52
   9   0  -5  718.60   49.30
   0  -9  -5  730.18   53.03
   9   0  -4  846.20   56.66
   0  -9  -4  814.04   53.93
   9   0  -3  136.43   16.61
   0  -9  -3  161.56   16.21
   9   0  -2  168.24   17.69
   0  -9  -2  154.06   16.31
   9   0  -1  102.01   13.54
   0  -9  -1  117.80   13.71
   9   0   0  221.43   20.55
   0  -9   0  199.80   19.24
   9   0   1  344.84   27.75
   9   0   2  269.91   23.25
   9   0   3    7.62    5.29
   9   0   4  654.26   41.81
   0  -9   4  673.06   42.48
   0  -9   5   37.90    9.13
   0  -9   5   20.58    7.00
   0  -9   6  121.15   14.72
   0  -9   6  129.89   15.23
   0  -9   7  235.08   19.13
   0  -9   7  150.25   17.52
   0  -9   8   91.98   10.43
   0  -9   8   60.95    9.50
   0  -9   9  381.48   26.51
   0  -9   9  410.40   27.23
   0  -9  10    3.28    2.27
   9   1  -9   46.51    6.38
   9   1  -8  113.29   12.28
   9   1  -7    3.29    3.95
   1 -10  -7   -1.08    5.93
   9   1  -6  257.08   22.06
   1 -10  -6  193.42   23.97
   9   1  -5   10.77    5.41
   9   1  -4  226.64   21.28
   9   1  -3  170.76   17.36
   1 -10  -3  144.72   15.57
   1 -10  -3  161.16   21.03
   9   1  -2  100.57   13.24
   1 -10  -2  108.16   17.44
   1 -10  -2  125.38   13.86
   9   1  -1  409.89   31.64
   1 -10  -1  449.76   38.77
   9   1   0   11.61    5.51
   1 -10   0   35.30   10.06
   1 -10   1  247.48   19.13
   9   1   1  223.15   20.62
   1 -10   1  232.68   20.66
   1 -10   1  190.81   24.43
   1 -10   2   79.40    9.89
   9   1   2   78.31   11.71
   1 -10   2   63.65   13.58
   1 -10   2   88.20   11.79
   1 -10   3  172.00   15.42
   9   1   3  212.25   18.55
   1 -10   3  169.66   17.37
   1 -10   4   22.37    5.31
   1 -10   4    8.10    5.21
   1 -10   4   23.28    7.17
   1 -10   5  263.87   23.10
   1 -10   5  295.92   21.47
   1 -10   5  266.42   20.68
   1 -10   6    3.60    3.21
   1 -10   6   -1.47    3.95
   1 -10   7  499.78   30.35
   1 -10   7  440.48   31.33
   1 -10   8  164.84   13.64
   1 -10   9   56.86    5.97
   9   2  -8    3.94    2.24
   9   2  -7  209.41   17.06
   9   2  -6   23.93    5.71
   9   2  -5   29.75    6.48
   9   2  -4  113.91   12.77
   2 -11  -4   79.14   14.58
   9   2  -3   63.23    9.44
   2 -11  -3   35.03   10.79
   9   2  -2   47.74    8.46
   2 -11  -2   21.20    9.76
   9   2  -1  504.72   33.43
   2 -11  -1  494.51   33.16
   9   2   0  244.05   19.64
   2 -11   0  227.54   19.48
   9   2   1  565.24   34.48
   2 -11   1  525.09   34.47
   9   2   2  154.19   15.10
   2 -11   2  138.64   14.96
   9   2   3   24.79    6.53
   2 -11   3   27.64    5.58
   2 -11   3   17.41    5.60
   2 -11   4   22.99    4.76
   2 -11   4   16.35    5.12
   2 -11   5    8.85    3.23
   2 -11   5   15.91    4.45
   2 -11   6  122.40   11.68
   2 -11   6  195.93   13.65
   9   3  -5   19.50    4.23
   9   3  -4  153.15   13.39
   9   3  -3  153.17   13.61
   9   3  -2  184.84   15.56
   9   3  -1   46.58    7.09
 -11   1  -5   50.92    6.60
 -11   1  -4  445.06   26.33
 -11   1  -4  317.39   26.52
 -11   1  -3  188.90   17.39
 -11   1  -2   46.66    6.29
 -11   1  -1   20.64    4.37
 -11   1  -1   23.45    6.06
 -11   1   0  395.06   26.49
 -11   1   0  455.52   30.08
 -11   1   1  119.45   10.99
 -11   1   1  116.62   12.54
 -11   1   2  605.31   37.17
 -11   1   2  632.32   39.38
 -11   1   3  105.53   10.22
 -11   1   3   99.16   11.19
 -11   1   4  455.29   28.74
 -11   1   4  445.31   29.85
 -11   1   5    9.69    3.42
 -11   1   6   19.66    3.87
 -10   0  -8  232.45   16.68
 -10   0  -7   50.37    7.56
 -10   0  -6  617.69   40.63
 -10   0  -6  679.66   41.20
 -10   0  -5  472.28   28.31
 -10   0  -5  287.88   26.33
 -10   0  -4   74.11   11.12
 -10   0  -3   88.28   10.16
 -10   0  -3   93.45   12.70
 -10   0  -2   15.22    4.89
 -10   0  -2   16.16    6.33
 -10   0  -1   16.24    4.74
 -10   0   0   80.84    9.96
 -10   0   1  197.76   17.45
 -10   0   1  226.18   20.01
 -10   0   2  293.21   22.75
 -10   0   2  312.92   24.86
 -10   0   3  885.16   53.62
 -10   0   3  900.83   55.33
 -10   0   4   42.64    7.64
 -10   0   4   55.78    8.75
 -10   0   5  252.56   20.38
 -10   0   5  259.02   21.26
 -10   0   6   98.05   10.90
 -10   0   6   97.24   11.69
 -10   0   7   36.38    6.37
 -10   0   7   36.96    6.77
 -10   0   8   46.33    6.39
 -10   0   9   81.87    7.55
  -9  -1  -9   80.36    9.00
  -9  -1  -8  141.84   14.54
  -9  -1  -7  534.46   32.28
  -9  -1  -7  435.14   33.51
  -9  -1  -6    1.44    4.15
  -9  -1  -6    0.76    3.98
  10  -9  -6    1.85    2.95
  10  -9  -5  281.05   20.45
  -9  -1  -5  179.39   19.61
  -9  -1  -4   21.87    5.93
  -9  -1  -4   17.29    6.42
  -9  -1  -3  184.83   16.98
  -9  -1  -3  188.28   20.22
  -9  -1  -2   82.33   10.73
  -9  -1  -2   86.77   13.27
  -9  -1  -1  212.54   19.11
  -9  -1  -1  229.80   22.12
  -9  -1   0   14.56    5.42
  -9  -1   0   10.68    6.62
  -9  -1   1  411.00   29.98
  -9  -1   2  131.17   14.38
  -9  -1   3  160.66   16.53
  -9  -1   3  169.78   17.66
  -9  -1   4  220.70   20.20
  -9  -1   4  241.37   21.53
  -9  -1   5   16.02    6.29
  -9  -1   6  313.81   25.94
  -9  -1   7   -0.80    4.30
  -9  -1   8  131.36   13.83
  -8  -2 -11  236.83   16.27
  -8  -2 -10    7.04    3.53
  10  -8 -10    6.34    2.70
  -8  -2  -9  118.54   13.01
  10  -8  -9  109.30   11.58
  -8  -2  -8  104.53   12.82
  10  -8  -8   60.15    9.77
  -8  -2  -7   78.75   11.83
  10  -8  -7   70.30   10.58
  -8  -2  -6  191.35   17.11
  10  -8  -6  148.30   16.90
  10  -8  -5  232.67   20.30
  -8  -2  -5  221.74   18.84
  10  -8  -4  572.62   37.40
  10  -8  -4  488.53   41.12
  -8  -2  -4  536.12   35.13
  10  -8  -3  165.88   17.40
  10  -8  -3  166.62   22.82
  -8  -2  -3  172.88   16.77
  -8  -2  -3  146.97   18.00
  10  -8  -2  152.41   17.24
  -8  -2  -2  179.72   19.71
  10  -8  -2  151.52   23.67
  -8  -2  -2  192.45   17.72
  -8  -2  -1   15.09    6.61
  10  -8  -1   14.28    9.48
  -8  -2  -1    3.97    4.49
  -8  -2   0  868.90   53.81
  -8  -2   0  802.51   49.83
  -8  -2   1   71.37   12.22
  -8  -2   1   65.34   10.54
  -8  -2   2  685.27   46.15
  10  -8   2  606.81   53.88
  -8  -2   2  641.15   43.61
  10  -8   3  183.35   24.68
  -8  -2   3  169.26   17.80
  10  -8   4  527.91   44.20
  -8  -2   5   77.25   12.22
  10  -8   6   36.84    8.50
  -8  -2   6   33.93    9.11
  10  -8   7   93.38   12.88
  -8  -2   7   86.42   13.06
  10  -8   8   79.60   11.88
  -8  -2   8   76.68   11.65
  10  -8   9  222.38   20.25
  -8  -2   9  255.60   20.38
  10  -8  10  114.14   11.64
  -8  -2  10  110.68   10.72
  -7  -3 -12   72.56    6.79
  10  -7 -11  103.53   10.02
  10  -7 -10   99.93   11.32
  10  -7  -9   28.83    6.90
  10  -7  -8  215.89   21.57
  10  -7  -7   32.58    8.80
  10  -7  -6  682.35   47.39
  10  -7  -6  657.56   46.74
  -7  -3  -5  207.69   20.36
  10  -7  -5  250.32   23.64
  -7  -3  -5  248.18   21.34
  10  -7  -5  222.11   24.28
  10  -7  -4  433.13   30.65
  -7  -3  -4  398.06   27.76
  10  -7  -4  404.42   34.83
  -7  -3  -3   56.68   11.07
  10  -7  -3   73.09   16.23
  10  -7  -3   61.57   11.00
  -7  -3  -2   50.69   10.72
  10  -7  -2   42.52   13.36
  10  -7  -2   55.11   10.13
  -7  -3  -1   18.64    7.62
  10  -7  -1   32.15   12.64
  10  -7  -1   18.67    7.16
  -7  -3   0    6.49    6.22
  10  -7   0    2.32    8.81
  -7  -3   1  592.04   43.27
  -7  -3   2  175.18   19.89
  10  -7   2  169.90   26.08
  -7  -3   2  181.99   18.47
  -7  -3   3 1845.00  104.23
  10  -7   3 1881.03  114.48
  -7  -3   3 1648.21  100.61
  10  -7   4    9.39    7.96
  -7  -3   4   -1.06    7.06
  10  -7   5  356.14   29.75
  10  -7   5  356.83   32.96
  10  -7   6   14.48    6.00
  10  -7   6   16.66    7.34
  10  -7   7   60.91   11.07
  -7  -3   7   53.18   11.19
  10  -7   8  214.15   21.26
  -7  -3   8  202.46   20.79
  10  -7   9   54.23    9.47
  -7  -3   9   51.72    9.00
  10  -7  10   44.42    7.65
  -7  -3  10   33.41    6.78
  10  -7  11  289.88   20.85
  10  -6 -12   62.97    6.68
  -6  -4 -12   51.40    5.89
  10  -6 -11   11.71    4.17
  10  -6 -10   46.38    8.78
  -6  -4 -10   57.23    8.32
  10  -6  -9  132.79   17.13
  -6  -4  -9  201.11   18.14
  10  -6  -8  274.20   25.24
  -6  -4  -8  200.90   21.07
  10  -6  -7 1441.21   89.05
  -6  -4  -7 1461.39   86.81
  10  -6  -6   61.10   11.92
  10  -6  -6   51.76   11.06
  -6  -4  -6   59.46   10.47
  10  -6  -5  418.00   33.94
  10  -6  -5  363.27   33.75
  -6  -4  -5  414.53   31.02
  10  -6  -4   78.15   12.98
  -6  -4  -4   71.06   10.83
  10  -6  -4   70.85   14.37
  -6  -4  -3   24.88    7.71
  10  -6  -3   30.98    8.80
  -6  -4  -3   29.22    7.24
  10  -6  -3   38.28   11.90
  -6  -4  -2  133.16   17.09
  10  -6  -2  141.91   17.41
  -6  -4  -2  164.04   16.52
  10  -6  -2  178.06   25.58
  -6  -4  -1   48.60   10.36
  10  -6  -1   61.36   11.10
  -6  -4  -1   52.63    9.32
  10  -6  -1   48.44   16.07
  -6  -4   0   16.70    7.45
  10  -6   0    4.82    5.68
  10  -6   0    4.80    8.64
  -6  -4   0   11.73    5.53
  -6  -4   1 1152.03   71.23
  -6  -4   1 1073.52   67.08
  -6  -4   2  182.82   20.60
  10  -6   2  181.37   27.35
  -6  -4   2  198.72   19.18
  -6  -4   3  469.62   38.14
  10  -6   3  448.86   43.89
  -6  -4   3  509.05   35.95
  10  -6   4  447.44   40.50
  -6  -4   4  436.96   36.01
  10  -6   5   29.06   10.07
  10  -6   5   29.64    8.17
  -6  -4   5   27.13    9.50
  10  -6   6  673.21   43.84
  10  -6   6  586.46   43.64
  10  -6   7   54.44   10.79
  10  -6   7   55.54   10.10
  10  -6   8   44.91    9.81
  -6  -4   9   42.68    8.64
  10  -6   9   50.43    9.29
  -6  -4   9   67.68   10.18
  -6  -4  10   43.53    7.42
  10  -6  10   43.81    7.84
  -6  -4  10   54.90    7.07
  -6  -4  11   29.65    5.39
  10  -6  11   28.10    5.33
  -6  -4  11   27.35    3.94
  -5  -5 -12   37.06    4.59
  10  -5 -12   39.72    5.64
  -5  -5 -11  109.03   10.37
  10  -5 -11  125.75   12.41
  10  -5 -10  139.41   15.64
  -5  -5  -9  101.10   11.79
  10  -5  -9   49.09   10.61
  -5  -5  -8  177.73   18.42
  10  -5  -8  182.96   20.75
  -5  -5  -7  439.16   35.59
  10  -5  -7  548.06   40.00
  10  -5  -6  155.41   18.53
  -5  -5  -6  146.23   17.36
  10  -5  -6  203.94   21.49
  10  -5  -5  327.49   31.37
  10  -5  -5  381.97   31.56
  10  -5  -4  521.40   44.72
  -5  -5  -4  556.26   38.47
  10  -5  -4  575.60   41.58
  10  -5  -3   35.27   12.05
  -5  -5  -3   27.05    7.03
  10  -5  -3   28.01    8.19
  -5  -5  -2  234.86   19.50
  10  -5  -2  254.45   22.02
  10  -5  -2  259.64   31.06
  -5  -5  -1  123.97   17.19
  -5  -5  -1  148.05   15.72
  -5  -5  -1  153.75   14.30
  10  -5  -1  184.81   27.69
  10  -5  -1  167.27   17.88
  -5  -5   0  597.45   44.01
  -5  -5   0  607.59   39.90
  -5  -5   0  588.48   37.59
  10  -5   0  620.09   42.16
  -5  -5   1   14.49    7.45
  -5  -5   1   25.23    6.98
  -5  -5   2  139.02   18.75
  -5  -5   2  149.21   15.97
  10  -5   2  160.32   25.69
  10  -5   3    5.68    8.81
  -5  -5   3   22.76    9.37
  -5  -5   3   10.10    5.28
  -5  -5   4  603.53   38.93
  10  -5   4  514.11   45.46
  -5  -5   4  469.01   41.16
  -5  -5   5  188.38   18.25
  10  -5   5  175.13   22.06
  10  -5   5  183.73   18.61
  -5  -5   5  123.29   18.71
  10  -5   6  185.55   18.65
  10  -5   6  186.26   20.94
  -5  -5   6  140.74   19.22
  10  -5   7  375.27   29.11
  10  -5   7  304.64   27.57
  -5  -5   7  345.62   29.43
  10  -5   8   65.95   10.82
  -5  -5   8   83.01   12.17
  -5  -5   9   38.52    8.39
  10  -5   9   35.20    7.50
  -5  -5   9   39.46    6.29
  10  -5  10   25.59    5.76
  -5  -5  10   35.97    6.61
  -5  -5  11   29.44    5.69
  -5  -5  11   33.16    5.11
  10  -4 -12  421.17   25.92
  -4  -6 -11   10.55    2.93
  10  -4 -11    5.37    3.05
  -4  -6 -10  287.18   20.10
  10  -4 -10  289.21   23.47
  10  -4  -9    3.99    4.15
  -4  -6  -8   56.51    9.05
  -4  -6  -8   44.04    8.88
  10  -4  -8   43.57    9.46
  -4  -6  -7   -3.40    4.44
  -4  -6  -7    0.90    4.06
  10  -4  -7    2.21    5.48
  -4  -6  -6  170.74   19.05
  10  -4  -6  240.51   22.73
  10  -4  -6  213.37   21.55
  -4  -6  -5   13.70    5.97
  10  -4  -5   17.89    7.41
  10  -4  -5   26.61    7.82
  -4  -6  -4  661.60   43.67
  -4  -6  -4  619.52   40.25
  10  -4  -4  666.14   51.53
  10  -4  -4  628.40   45.15
  -4  -6  -3  296.33   22.34
  -4  -6  -3  269.16   23.30
  10  -4  -3  286.83   32.85
  10  -4  -3  303.42   26.25
  -4  -6  -2  217.76   18.86
  -4  -6  -2  237.81   20.47
  10  -4  -2  235.81   31.03
  10  -4  -2  236.35   22.56
  -4  -6  -1  419.53   31.23
  10  -4  -1  441.06   33.86
  10  -4  -1  435.10   45.92
  -4  -6  -1  446.76   30.65
  -4  -6   0   41.06    7.82
  -4  -6   0   40.09    7.59
  10  -4   0   47.95    9.69
  -4  -6   1   70.95   13.90
  -4  -6   1  116.01   12.85
  -4  -6   1  103.36   12.53
  10  -4   2    8.77   10.85
  -4  -6   2    8.30    4.80
  -4  -6   2    7.00    6.94
  -4  -6   3  228.17   19.24
  10  -4   3  262.08   30.72
  10  -4   4   62.95   15.40
  -4  -6   4   41.96   11.06
  -4  -6   4   66.22    9.85
  -4  -6   5  466.47   37.17
  -4  -6   5  437.07   32.02
  10  -4   5  483.78   39.83
  10  -4   6   25.32    7.76
  -4  -6   6   23.46    7.99
  -4  -6   6   17.26    5.07
  10  -4   7  547.24   37.38
  -4  -6   7  612.17   39.79
  10  -4   8  285.44   24.83
  -4  -6   8  403.91   27.71
  10  -4   9   47.72    7.89
  -4  -6   9   71.22   10.67
  -4  -6   9   79.73   10.02
  -4  -6  10  121.13   12.60
  -4  -6  10  133.57   12.74
  -4  -6  11   40.66    5.78
  10  -3 -11   42.86    5.85
  10  -3 -10   12.47    4.49
  -3  -7  -9   95.52   12.06
  10  -3  -9   91.39   11.91
  -3  -7  -8   72.97   12.28
  10  -3  -8   75.89   11.71
  -3  -7  -7  292.30   25.81
  10  -3  -7  253.63   24.14
  -3  -7  -6  111.50   12.60
  -3  -7  -6  127.69   15.92
  10  -3  -6   95.88   14.17
  10  -3  -6  139.51   15.88
  -3  -7  -5  187.88   19.23
  10  -3  -5  256.40   25.64
  10  -3  -5  260.11   23.19
  -3  -7  -5  235.44   19.37
  -3  -7  -4    2.02    3.71
  10  -3  -4    5.73    5.25
  10  -3  -4    6.02    7.22
  -3  -7  -3  291.36   23.22
  10  -3  -3  302.95   25.95
  -3  -7  -2  245.20   21.14
  10  -3  -2  275.54   23.74
  -3  -7  -1  202.71   18.01
  -3  -7  -1  183.74   17.25
  10  -3  -1  181.15   19.04
  -3  -7   0   14.70    5.72
  -3  -7   0   22.69    5.91
  -3  -7   1  387.95   29.11
  -3  -7   2    2.10    4.74
  -3  -7   2   25.52    7.04
  -3  -7   3  229.19   22.74
  -3  -7   4   69.52   11.95
  10  -3   5   88.88   15.22
  -3  -7   5   75.86   11.76
  10  -3   6  760.43   54.54
  -3  -7   6  852.46   52.87
  10  -3   7    9.35    4.79
  -3  -7   7    2.27    4.27
  -3  -7   8  300.65   27.46
  -3  -7   8  389.30   26.78
  -3  -7   9    5.36    4.34
  -3  -7   9    2.29    3.36
  -3  -7  10   96.99   10.33
  -3  -7  11    5.45    2.63
  10  -2 -10   33.55    5.03
  10  -2  -9  165.29   14.47
  10  -2  -8  213.61   18.39
  -2  -8  -8  164.12   19.29
  10  -2  -7  601.05   40.54
  -2  -8  -7  598.62   44.03
  -2  -8  -6  204.94   20.69
  10  -2  -6  156.11   16.58
  10  -2  -6  151.67   17.51
  10  -2  -5  118.65   14.09
  -2  -8  -5  114.76   16.14
  -2  -8  -4  197.48   18.14
  10  -2  -4  211.38   19.69
  10  -2  -3   60.26   10.05
  -2  -8  -3   73.89   10.28
  10  -2  -2   73.81   10.72
  10  -2  -2   56.47    9.14
  -2  -8  -2   58.58    9.42
  10  -2  -1    5.17    4.70
  -2  -8  -1    7.38    4.78
  10  -2   0 1148.95   65.90
  -2  -8   0 1048.61   65.36
  10  -2   1    0.74    3.98
  -2  -8   1    3.89    4.47
  -2  -8   2  487.25   34.87
  -2  -8   3   15.02    6.21
  -2  -8   4  265.18   23.41
  -2  -8   5  227.65   20.12
  10  -2   6   58.93   11.33
  -2  -8   6   37.62    9.24
  -2  -8   6   57.92    9.07
  -2  -8   7  299.78   21.96
  10  -2   7  233.49   22.04
  -2  -8   7  261.18   23.39
  -2  -8   8  255.45   21.11
  -2  -8   9   35.98    5.65
  -2  -8   9   36.84    6.37
  -2  -8  11   77.72    7.13
  -1  -9  -8  118.51   14.52
  -1  -9  -7    3.13    4.86
  10  -1  -6  309.82   25.86
  -1  -9  -6  358.55   30.48
  10  -1  -5   28.63    6.12
  -1  -9  -5   23.32    8.08
  10  -1  -5   18.09    5.33
  -1  -9  -4  176.47   16.91
  -1  -9  -4  214.36   22.36
  10  -1  -4  180.92   17.40
  -1  -9  -3  107.86   12.77
  -1  -9  -3  149.31   18.20
  10  -1  -3  116.61   13.37
  -1  -9  -2  189.56   18.21
  10  -1  -2  235.79   19.88
  -1  -9  -1  457.03   33.10
  10  -1  -1  494.85   33.83
  -1  -9   0   20.22    6.05
  10  -1   0   22.26    6.19
  -1  -9   1  256.05   22.11
  10  -1   1  272.47   22.20
  -1  -9   2   16.45    6.10
  10  -1   2    4.45    4.38
  -1  -9   3  168.79   17.16
  -1  -9   4    6.54    5.50
  -1  -9   5  234.06   21.85
  -1  -9   6    1.40    4.13
  -1  -9   6    0.78    3.96
  -1  -9   7  397.02   25.09
  -1  -9   7  259.55   23.89
  -1  -9   8   52.62    7.17
  -1  -9   8   38.70    7.04
  -1  -9   9   84.37    8.26
  -1  -9   9   71.04    8.12
  -1  -9  10   43.89    5.14
   0 -10  -6   60.39   11.58
  10   0  -6   51.59    7.39
   0 -10  -5  172.61   20.25
  10   0  -5  169.29   15.50
  10   0  -4   37.22    7.32
   0 -10  -3  845.18   52.40
  10   0  -3  881.47   53.13
   0 -10  -2  274.41   22.46
   0 -10  -2  305.12   28.62
  10   0  -2  288.82   22.94
   0 -10  -1  197.99   18.23
   0 -10  -1  210.84   23.32
  10   0  -1  213.45   18.43
   0 -10   0   53.13    8.92
  10   0   0   54.96    8.86
   0 -10   1   25.19    8.79
  10   0   1   12.81    4.98
   0 -10   2   15.05    6.85
  10   0   2   15.52    5.18
   0 -10   3   66.96   11.58
   0 -10   4  108.72   12.62
   0 -10   4   87.12   12.50
   0 -10   5  427.33   26.69
   0 -10   5  356.49   28.27
   0 -10   6  489.34   33.10
   0 -10   7   47.32    6.96
   0 -10   8  254.53   17.36
  10   1  -5   58.34    7.26
   1 -11  -4   89.18   13.36
  10   1  -4   84.73    9.46
   1 -11  -3   -1.12    5.19
  10   1  -3    4.41    2.96
   1 -11  -2   90.93   14.73
  10   1  -2  113.36   11.54
   1 -11  -1   11.61    6.24
  10   1  -1    7.38    4.05
   1 -11   0  327.57   34.76
  10   1   0  591.30   32.93
   1 -11   1    8.24    5.55
   1 -11   1   10.75    4.58
  10   1   1   10.75    4.16
   1 -11   2  141.50   16.78
   1 -11   2  201.24   16.62
   1 -11   3   12.63    4.66
   1 -11   4  188.28   16.43
   1 -11   5   99.75   10.16
   1 -11   6  116.14    9.94
  10   2  -2  128.62   11.00
  10   2  -1  133.42   11.45
 -11   0  -4    4.32    2.38
 -11   0  -3  311.01   20.85
 -11   0  -1  167.93   12.71
 -11   0   0    6.65    2.74
 -11   0   1  105.60    9.48
 -11   0   2  186.54   13.89
 -11   0   3   32.84    4.94
 -11   0   4  124.29   10.15
 -10  -1  -7  184.09   13.56
 -10  -1  -6  103.16   10.46
 -10  -1  -5  112.83   11.45
 -10  -1  -4  303.32   22.24
 -10  -1  -3   12.82    4.62
 -10  -1  -2  197.18   15.37
 -10  -1  -2  157.62   16.27
 -10  -1  -1   12.94    4.21
 -10  -1  -1    6.48    4.43
 -10  -1   0  563.17   35.86
 -10  -1   0  603.03   38.85
 -10  -1   1    3.11    3.52
 -10  -1   1    1.40    4.02
 -10  -1   2  141.98   13.07
 -10  -1   3    2.63    3.09
 -10  -1   3   -3.96    4.68
 -10  -1   4  121.49   11.69
 -10  -1   4  113.44   12.28
 -10  -1   5  143.11   12.54
 -10  -1   5  127.45   13.14
 -10  -1   6   34.39    5.37
 -10  -1   7  214.09   14.99
  -9  -2  -8  362.88   23.74
  -9  -2  -7   38.60    6.77
  -9  -2  -6  226.23   18.95
  -9  -2  -5   15.75    5.04
  -9  -2  -4   11.48    4.75
  -9  -2  -3   15.34    4.72
  -9  -2  -3    6.37    4.30
  -9  -2  -2  133.74   13.11
  -9  -2  -2  111.70   13.97
  -9  -2  -1  556.48   36.07
  -9  -2  -1  543.47   38.61
  -9  -2   0  244.23   20.33
  -9  -2   0  271.22   22.96
  -9  -2   1  541.69   36.61
  -9  -2   1  591.05   39.67
  -9  -2   2   46.69    7.82
  -9  -2   2   41.12    8.60
  -9  -2   3   71.80    9.59
  -9  -2   3   53.03    9.52
  -9  -2   4  121.71   12.72
  -9  -2   5   35.33    7.86
  -9  -2   6   16.59    5.67
  -9  -2   7  281.40   21.49
  -9  -2   8    3.60    2.16
  11  -8  -9  221.48   15.11
  11  -8  -8   92.98    9.60
  11  -8  -7  137.85   13.70
  11  -8  -6   21.94    5.99
  11  -8  -5  112.46   13.13
  -8  -3  -4    0.66    3.73
  -8  -3  -4    1.28    2.88
  11  -8  -4    5.58    4.38
  -8  -3  -3  345.00   23.32
  11  -8  -3  371.59   30.73
  -8  -3  -2    9.55    5.05
  11  -8  -2    3.05    7.32
  -8  -3  -2    4.56    4.39
  11  -8  -1  411.74   39.79
  -8  -3  -1  438.16   33.20
  11  -8   0    7.36    9.89
  -8  -3   0   14.32    6.71
  -8  -3   1  372.73   30.12
  11  -8   2  302.01   31.76
  -8  -3   2  303.91   26.27
  -8  -3   3   15.79    6.33
  11  -8   3    8.42    7.36
  -8  -3   3   10.33    5.12
  -8  -3   4  280.33   25.17
  -8  -3   4  311.57   24.04
  -8  -3   5   28.74    6.61
  -8  -3   6  107.34   12.21
  -8  -3   7  126.25   13.02
  -8  -3   7   84.59   10.60
  -8  -3   8  101.69   10.43
  -8  -3   8   90.27    9.33
  -8  -3   9   36.10    4.68
  -7  -4 -10   10.91    2.81
  11  -7 -10   12.18    3.01
  -7  -4  -9  186.30   14.56
  11  -7  -9  168.03   14.48
  -7  -4  -8  103.92   11.46
  11  -7  -8   82.99   10.78
  -7  -4  -7  260.54   22.23
  11  -7  -7  259.11   22.58
  -7  -4  -6  111.67   13.41
  11  -7  -6  118.70   14.51
  11  -7  -5   98.59   14.23
  -7  -4  -5  139.99   14.69
  11  -7  -5  119.48   14.69
  11  -7  -4  452.73   37.44
  11  -7  -4  480.41   35.05
  11  -7  -3   21.38    7.33
  -7  -4  -3   17.18    5.73
  11  -7  -3   33.77    9.61
  11  -7  -2  231.85   20.77
  11  -7  -2  221.09   26.44
  -7  -4  -2  222.54   18.85
  -7  -4  -1   11.02    5.53
  11  -7  -1    7.31    8.78
  -7  -4  -1   10.26    4.68
  -7  -4   0  385.56   31.20
  11  -7   0  302.09   36.39
  -7  -4   0  395.83   28.49
  -7  -4   1   47.92   10.32
  -7  -4   1   53.63    8.97
  -7  -4   2  232.61   23.62
  -7  -4   2  268.47   21.85
  11  -7   2  241.47   29.46
  -7  -4   3   27.75    6.96
  11  -7   3   31.53   10.72
  -7  -4   3   15.86    7.16
  -7  -4   4  531.77   41.97
  11  -7   4  627.05   46.17
  -7  -4   4  613.06   39.96
  11  -7   5  311.03   26.19
  -7  -4   5  280.39   22.22
  -7  -4   6  134.77   15.84
  -7  -4   6  118.68   13.10
  -7  -4   7   55.66    8.25
  -7  -4   8  130.61   11.82
  -7  -4   9   19.14    3.44
  -7  -4   9   18.74    4.38
  -6  -5 -10  131.89   10.14
  -6  -5  -8  387.68   26.99
  -6  -5  -7    5.83    3.82
  11  -6  -6  541.32   37.52
  -6  -5  -6  550.26   38.17
  11  -6  -5   37.93    8.78
  -6  -5  -5   41.28    8.31
  11  -6  -4   35.66   10.06
  11  -6  -3   65.74   13.73
  -6  -5  -3   77.31   10.63
  11  -6  -2   27.02   11.17
  -6  -5  -2   24.79    6.37
  -6  -5  -1  273.56   20.15
  11  -6  -1  273.67   30.40
  -6  -5   0  116.95   12.86
  11  -6   0   83.14   18.62
  -6  -5   0   78.30   13.75
  -6  -5   1  343.80   31.66
  -6  -5   1  423.85   29.59
  -6  -5   2  157.10   14.43
  -6  -5   2  195.76   17.41
  -6  -5   2  138.84   18.52
  11  -6   2  187.64   25.20
  -6  -5   3  313.63   22.82
  -6  -5   3  286.23   23.95
  -6  -5   3  272.42   27.37
  -6  -5   4   37.76    9.94
  -6  -5   4   53.84    8.62
  11  -6   4   33.29   10.08
  -6  -5   5  164.30   15.94
  11  -6   5  178.97   20.23
  -6  -5   5  158.41   18.30
  11  -6   6  128.48   14.64
  -6  -5   6  136.51   14.98
  -6  -5   7   93.55   10.35
  -6  -5   7  118.04   13.17
  -6  -5   8   16.36    5.22
  -6  -5   8    6.62    4.12
  -6  -5   8   10.34    2.95
  -6  -5   9   97.37    9.81
  11  -5 -10  115.70   10.26
  -5  -6  -9  286.43   19.52
  11  -5  -9  351.78   23.57
  11  -5  -8   31.83    7.07
  -5  -6  -7  129.22   12.25
  11  -5  -7   86.46   12.42
  11  -5  -6   31.15    7.76
  11  -5  -6   18.28    5.49
  -5  -6  -6   15.15    5.56
  -5  -6  -6   19.64    5.85
  11  -5  -5  115.24   14.43
  -5  -6  -5  103.31   12.89
  11  -5  -5  100.59   14.19
  11  -5  -4    9.13    6.03
  -5  -6  -4   11.01    4.86
  11  -5  -3  495.88   41.37
  -5  -6  -3  456.95   33.13
  11  -5  -3  461.23   34.68
  -5  -6  -2    2.86    3.74
  11  -5  -2    3.59    4.81
  11  -5  -2   10.24    8.19
  -5  -6  -1  435.34   29.48
  11  -5  -1  457.54   43.88
  -5  -6  -1  469.64   32.16
  -5  -6   0   77.16    9.45
  -5  -6   0  104.04   11.71
  -5  -6   1  163.24   14.15
  -5  -6   1  162.42   15.01
  -5  -6   2  264.86   20.29
  -5  -6   2  270.68   20.73
  11  -5   2  255.68   30.24
  -5  -6   3   22.31    5.85
  -5  -6   3   22.05    7.71
  -5  -6   3   14.14    5.12
  11  -5   3   11.06    8.73
  -5  -6   4  133.45   13.40
  11  -5   4  105.40   16.88
  -5  -6   4  138.99   16.44
  -5  -6   5   53.75    8.08
  11  -5   5   99.43   14.40
  -5  -6   5   78.89   11.78
  11  -5   6  179.59   18.73
  -5  -6   6  198.50   18.25
  -5  -6   7   23.10    6.19
  -5  -6   8  124.58   11.97
  -5  -6   8   98.54   11.90
  -5  -6   9    3.48    2.86
  -5  -6   9    0.42    2.75
  11  -4 -10   22.91    3.90
  11  -4  -9  361.87   24.39
  11  -4  -8   71.03    9.63
  11  -4  -7   50.14    9.14
  -4  -7  -7   59.87    9.29
  11  -4  -6   20.59    6.29
  -4  -7  -6   29.26    7.20
  -4  -7  -5    5.83    4.91
  11  -4  -5   15.12    5.98
  11  -4  -5    8.56    5.83
  11  -4  -4  279.67   26.84
  11  -4  -4  277.70   23.80
  -4  -7  -3   12.31    4.16
  11  -4  -3   18.58    8.93
  11  -4  -3   11.83    6.20
  11  -4  -2  516.37   44.64
  11  -4  -2  525.53   35.87
  -4  -7  -2  452.05   31.63
  11  -4  -1   74.62   17.08
  -4  -7  -1   69.03    9.21
  -4  -7   0  617.61   38.96
  -4  -7   0  634.11   39.11
  -4  -7   1   49.77    7.79
  -4  -7   1   53.11    8.37
  -4  -7   2  118.02   13.27
  11  -4   2  130.35   21.11
  -4  -7   3   42.73    8.09
  11  -4   3   55.50   13.46
  -4  -7   3   27.60    6.56
  -4  -7   4  470.35   31.48
  11  -4   4  419.56   36.03
  -4  -7   4  381.23   29.96
  11  -4   5  201.86   21.47
  -4  -7   5  212.37   18.67
  11  -4   6  164.90   18.57
  -4  -7   6  235.16   18.28
  -4  -7   7   24.23    6.43
  -4  -7   7   39.35    6.48
  -4  -7   8  181.24   15.80
  -4  -7   8  167.29   14.20
  -4  -7   9   66.46    7.59
  -4  -7  10    1.21    1.81
  11  -3  -8  359.25   23.85
  11  -3  -7    1.87    3.08
  -3  -8  -7   -0.77    3.33
  11  -3  -6  433.22   31.16
  -3  -8  -6  482.75   34.54
  11  -3  -5  143.77   16.24
  11  -3  -5  168.48   15.90
  -3  -8  -5  148.92   17.34
  -3  -8  -4   13.68    6.33
  11  -3  -4   10.92    6.05
  11  -3  -4   21.36    6.29
  11  -3  -3   82.88   14.78
  -3  -8  -3   75.50    9.55
  11  -3  -2   22.22    9.79
  -3  -8  -2   25.23    5.67
  11  -3  -1   43.71   12.66
  -3  -8  -1   30.59    6.70
  11  -3   0  107.82   21.84
  -3  -8   0  200.06   16.86
  -3  -8   1  163.89   15.87
  11  -3   2  513.13   46.48
  -3  -8   2  562.14   37.00
  11  -3   3  623.01   48.77
  -3  -8   3  605.88   40.19
  -3  -8   4   15.77    5.87
  11  -3   4    8.33    6.42
  -3  -8   5  304.85   22.99
  11  -3   5  224.18   23.14
  -3  -8   6   82.88   10.81
  -3  -8   6   72.99   10.61
  11  -3   6   88.31   11.27
  -3  -8   7   50.18    8.30
  -3  -8   7   80.17    9.73
  -3  -8   8   18.07    4.81
  -3  -8   8   29.62    5.23
  -2  -9  -7  257.87   21.66
  -2  -9  -6    7.69    4.60
  11  -2  -5  158.28   16.22
  -2  -9  -5  179.00   18.80
  11  -2  -4   25.26    7.22
  -2  -9  -4   27.22    7.99
  11  -2  -3  127.63   17.26
  -2  -9  -3  118.50   12.31
  -2  -9  -3  121.57   15.59
  -2  -9  -2    3.97    4.61
  -2  -9  -2    4.79    3.45
  -2  -9  -1  248.51   20.10
  -2  -9   0    7.65    4.27
  -2  -9   1  483.46   32.99
  -2  -9   2  361.93   26.81
  11  -2   3  141.10   19.93
  -2  -9   3  180.47   16.57
  11  -2   4  273.66   25.93
  -2  -9   4  237.66   22.37
  -2  -9   5   29.29    6.93
  -2  -9   5   35.52    6.98
  11  -2   5   25.74    7.29
  -2  -9   6  175.31   13.93
  -2  -9   6  111.41   12.97
  -1 -10  -6   16.03    5.60
  -1 -10  -5    6.87    5.16
  -1 -10  -4  451.59   34.43
  11  -1  -3   98.05   13.35
  -1 -10  -2  591.87   37.41
  -1 -10  -1  102.83   11.49
  -1 -10  -1  134.31   16.30
  -1 -10   0  386.82   27.73
  -1 -10   0  427.65   33.18
  -1 -10   1   18.41    6.79
  -1 -10   1   28.95    5.92
  -1 -10   2   26.68    8.06
  -1 -10   2   54.01    8.00
  11  -1   3  206.88   21.26
  -1 -10   3  224.58   17.90
  -1 -10   3  177.17   18.29
  11  -1   4  407.67   30.42
  -1 -10   4  389.79   27.60
  -1 -10   6  203.06   16.00
  -1 -10   7   10.90    2.91
   0 -11  -3   16.67    5.77
   0 -11  -2  120.18   15.14
   0 -11  -1   65.32   11.20
   0 -11   0   12.56    5.16
   0 -11   1   70.86   11.00
   0 -11   3  257.73   18.96
   0 -11   4    4.43    2.37
 -10  -2  -4    4.16    2.28
 -10  -2  -3  164.86   13.25
 -10  -2  -2   52.73    6.75
 -10  -2   0   87.54    8.53
 -10  -2   1  143.19   11.78
 -10  -2   2  169.12   13.03
 -10  -2   3   46.64    5.74
 -10  -2   4   33.04    4.51
  -9  -3  -1  184.12   15.13
  -9  -3   4  136.32   11.88
  -9  -3   5   10.86    3.23
  -8  -4  -7    2.77    1.85
  -8  -4  -6   48.33    6.63
  -8  -4  -5   26.81    5.73
  -8  -4  -4  190.54   16.43
  -8  -4  -3  116.55   12.13
  -8  -4  -2  458.79   30.29
  12  -8  -1  137.54   18.42
  -8  -4  -1  138.36   13.00
  12  -8   0    1.33    6.01
  -8  -4   0   15.40    4.60
  -8  -4   1   29.04    7.07
  -8  -4   1   52.17    7.54
  -8  -4   2    3.17    4.04
  -8  -4   2    4.35    3.14
  -8  -4   3  210.03   20.08
  -8  -4   3  265.04   19.11
  -8  -4   4    3.89    3.74
  -8  -4   4    0.99    2.38
  -8  -4   5  187.10   14.83
  -8  -4   6   49.93    5.76
  -7  -5  -6   21.09    4.51
  -7  -5  -5  197.58   16.78
  12  -7  -4   75.04   11.12
  -7  -5  -4   76.78    9.60
  12  -7  -3  384.21   31.96
  -7  -5  -3  425.07   28.85
  12  -7  -2   43.07   10.94
  12  -7  -1   84.74   14.92
  -7  -5  -1   92.83   10.43
  12  -7   0   33.25   10.27
  -7  -5   0   60.38    8.26
  -7  -5   1   18.86    5.99
  -7  -5   1   25.58    5.57
  12  -7   2  136.59   18.28
  -7  -5   2  142.47   12.73
  -7  -5   3  158.76   16.08
  12  -7   3  194.92   20.20
  -7  -5   3  166.64   14.57
  -7  -5   4  109.36   11.71
  12  -7   4  122.94   14.26
  -7  -5   5  148.63   12.51
  -6  -6  -5  145.58   12.55
  -6  -6  -4  287.04   19.94
  12  -6  -4  265.00   22.29
  -6  -6  -3  236.04   20.01
  12  -6  -3  326.12   26.46
  -6  -6  -2  163.02   15.29
  12  -6  -2  209.06   22.22
  -6  -6  -1   24.99    5.36
  12  -6  -1   19.22    7.81
  -6  -6   0  609.88   35.89
  12  -6   0  426.63   42.28
  -6  -6   1  237.38   18.45
  -6  -6   2  207.65   16.73
  12  -6   2  227.98   24.22
  -6  -6   3   74.69    8.91
  -6  -6   3   96.98    9.24
  -6  -6   4  261.05   18.56
  12  -6   4  278.80   24.29
  -6  -6   5    5.36    2.77
  -6  -6   6   58.11    6.92
  -5  -7  -5    6.56    3.42
  -5  -7  -4  149.47   14.45
  12  -5  -4  128.35   14.72
  12  -5  -3   57.54   10.54
  12  -5  -2  754.98   53.14
  12  -5  -1  362.43   33.47
  -5  -7   0   47.48    6.41
  12  -5   0   53.62   12.62
  -5  -7   1  240.16   17.60
  -5  -7   2   36.64    6.04
  12  -5   2   51.03   10.95
  -5  -7   3  223.44   17.26
  12  -5   3  232.74   23.17
  -5  -7   4   37.54    6.15
  12  -5   4   36.34    8.13
  -5  -7   5  154.06   13.20
  -5  -7   6   33.89    5.53
  -5  -7   7  161.27   12.60
  -4  -8  -5   68.06    9.35
  -4  -8  -4   14.78    5.27
  -4  -8  -3  348.05   25.80
  12  -4  -3  287.58   25.81
  12  -4  -2   11.85    6.36
  -4  -8  -1  249.02   18.02
  12  -4  -1  256.80   26.19
  -4  -8   0   26.72    5.09
  12  -4   0   20.93    9.41
  -4  -8   1  140.38   12.66
  -4  -8   2  207.77   16.87
  12  -4   2  235.30   23.77
  -4  -8   3  116.36   11.44
  12  -4   3  114.79   15.00
  -4  -8   4  136.55   12.63
  -4  -8   5   38.20    6.00
  -4  -8   6   44.56    6.30
  -4  -8   7    6.04    2.45
  -3  -9  -5   95.67   11.50
  -3  -9  -4  348.58   26.50
  -3  -9  -3   75.76   10.69
  -3  -9  -2   51.41    9.06
  12  -3  -2   48.90    9.31
  -3  -9  -1   -0.78    3.75
  -3  -9  -1    0.85    2.16
  12  -3  -1    3.23    4.08
  -3  -9   0  248.99   17.09
  12  -3   0  145.74   20.34
  -3  -9   1   30.25    5.51
  -3  -9   2  491.36   30.18
  12  -3   2  420.89   34.86
  -3  -9   3    5.64    3.00
  -3  -9   4  416.22   27.11
  -3  -9   5    5.38    2.78
  -3  -9   6   16.08    3.26
  -2 -10  -4   57.13    8.40
  -2 -10  -3   12.69    4.72
  -2 -10   0  109.23    9.96
  -2 -10   0   88.67   11.76
  -2 -10   1  444.21   25.59
  -2 -10   1  303.98   26.79
  -2 -10   2    6.39    3.21
  -2 -10   2    6.58    3.14
  -2 -10   3  246.01   17.58
  -2 -10   4   26.02    4.50
  -5  -8   0  488.10   31.67
  -5  -8   1    0.48    2.15
   0   0   0    0.00    0.00


TITL NH4-Ce(SO4)6 in P3
REM P3 (#143 in standard setting)
CELL 1.54184  10.434037  10.434037  15.528507  90.0000  90.0000 120.0000
ZERR    2.00   0.000104   0.000104   0.000165   0.0000   0.0000   0.0000
LATT -1
SYMM -y, x-y, z
SYMM -x+y,-x, z
SFAC N O S Ce
UNIT 12.00 50.00 12.00 2.00
REM  CrysAlisPro recorded range (K): Min=172.9; max=173.0; aver:173.0
TEMP -100
SIZE 0.05 0.17 0.23
TREF
HKLF 4
END
_computing_structure_solution     'SHELXT 2018/2 (Sheldrick, 2018)'
;
_shelx_hkl_checksum                92256
_shelx_fab_file
;
0 0 1 -14.5453 -0.0983
0 0 2 14.0084 0.1559
0 0 3 -13.1356 -0.1515
0 0 4 11.9707 0.0928
0 0 5 -10.5872 -0.0119
0 0 6 9.0869 -0.0514
0 0 7 -7.5854 0.0689
0 0 8 6.1906 -0.0376
0 0 9 -4.9796 -0.0204
0 0 10 3.9850 0.0707
0 0 11 -3.1945 -0.0855
0 0 12 2.5661 0.0580
0 0 13 -2.0497 -0.0066
0 0 14 1.6073 -0.0347
0 0 15 -1.2236 0.0333
0 0 16 0.9033 0.0248
0 0 17 -0.6585 -0.1280
0 0 18 0.4946 0.2429
0 0 19 -0.4006 -0.3297
0 1 -19 -0.3705 0.2857
0 1 -18 0.4663 -0.2048
0 1 -17 -0.6331 0.0974
0 1 -16 0.8812 -0.0019
0 1 -15 -1.2047 -0.0499
0 1 -14 1.5908 0.0466
0 1 -13 -2.0343 -0.0020
0 1 -12 2.5497 -0.0521
0 1 -11 -3.1742 0.0824
0 1 -10 3.9574 -0.0706
0 1 -9 -4.9414 0.0233
0 1 -8 6.1387 0.0323
0 1 -7 -7.5184 -0.0627
0 1 -6 9.0049 0.0460
0 1 -5 -10.4918 0.0149
0 1 -4 11.8644 -0.0929
0 1 -3 -13.0214 0.1491
0 1 -2 13.8886 -0.1523
0 1 -1 -14.4216 0.0950
0 1 0 14.5991 0.0020
0 1 1 -14.4152 -0.0989
0 1 2 13.8759 0.1561
0 1 3 -13.0023 -0.1528
0 1 4 11.8391 0.0963
0 1 5 -10.4608 -0.0178
0 1 6 8.9690 -0.0437
0 1 7 -7.4785 0.0613
0 1 8 6.0959 -0.0321
0 1 9 -4.8967 -0.0222
0 1 10 3.9116 0.0681
0 1 11 -3.1278 -0.0785
0 1 12 2.5030 0.0471
0 1 13 -1.9874 0.0080
0 1 14 1.5441 -0.0534
0 1 15 -1.1586 0.0572
0 1 16 0.8367 -0.0057
0 1 17 -0.5914 -0.0898
0 1 18 0.4288 0.1973
0 1 19 -0.3385 -0.2783
0 2 -19 -0.3408 0.1978
0 2 -18 0.4492 -0.1326
0 2 -17 -0.6295 0.0443
0 2 -16 0.8902 0.0332
0 2 -15 -1.2241 -0.0711
0 2 -14 1.6171 0.0592
0 2 -13 -2.0623 -0.0104
0 2 -12 2.5716 -0.0458
0 2 -11 -3.1792 0.0784
0 2 -10 3.9318 -0.0704
0 2 -9 -4.8699 0.0277
0 2 -8 6.0069 0.0245
0 2 -7 -7.3153 -0.0545
0 2 -6 8.7248 0.0416
0 2 -5 -10.1355 0.0123
0 2 -4 11.4386 -0.0822
0 2 -3 -12.5366 0.1324
0 2 -2 13.3572 -0.1336
0 2 -1 -13.8559 0.0790
0 2 0 14.0106 0.0124
0 2 1 -13.8149 -0.1035
0 2 2 13.2748 0.1575
0 2 3 -12.4128 -0.1549
0 2 4 11.2745 0.1025
0 2 5 -9.9342 -0.0293
0 2 6 8.4914 -0.0292
0 2 7 -7.0569 0.0479
0 2 8 5.7313 -0.0249
0 2 9 -4.5840 -0.0195
0 2 10 3.6411 0.0544
0 2 11 -2.8868 -0.0549
0 2 12 2.2786 0.0157
0 2 13 -1.7690 0.0456
0 2 14 1.3246 -0.0979
0 2 15 -0.9351 0.1118
0 2 16 0.6101 -0.0748
0 2 17 -0.3662 -0.0027
0 2 18 0.2117 0.0915
0 2 19 -0.1379 -0.1574
0 3 -18 0.4661 -0.0848
0 3 -17 -0.6650 0.0194
0 3 -16 0.9414 0.0382
0 3 -15 -1.2874 -0.0636
0 3 -14 1.6878 0.0480
0 3 -13 -2.1327 -0.0022
0 3 -12 2.6291 -0.0484
0 3 -11 -3.2037 0.0768
0 3 -10 3.8952 -0.0681
0 3 -9 -4.7384 0.0273
0 3 -8 5.7455 0.0229
0 3 -7 -6.8931 -0.0541
0 3 -6 8.1214 0.0472
0 3 -5 -9.3443 -0.0035
0 3 -4 10.4681 -0.0557
0 3 -3 -11.4089 0.0985
0 3 -2 12.1043 -0.0993
0 3 -1 -12.5155 0.0515
0 3 0 12.6228 0.0278
0 3 1 -12.4198 -0.1061
0 3 2 11.9112 0.1508
0 3 3 -11.1171 -0.1449
0 3 4 10.0794 0.0947
0 3 5 -8.8660 -0.0261
0 3 6 7.5676 -0.0292
0 3 7 -6.2833 0.0492
0 3 8 5.1015 -0.0323
0 3 9 -4.0799 -0.0034
0 3 10 3.2364 0.0307
0 3 11 -2.5513 -0.0279
0 3 12 1.9835 -0.0092
0 3 13 -1.4907 0.0652
0 3 14 1.0473 -0.1134
0 3 15 -0.6515 0.1290
0 3 16 0.3204 -0.1023
0 3 17 -0.0764 0.0433
0 3 18 -0.0680 0.0228
0 4 -18 0.4454 -0.0790
0 4 -17 -0.6493 0.0342
0 4 -16 0.9289 0.0073
0 4 -15 -1.2777 -0.0260
0 4 -14 1.6808 0.0139
0 4 -13 -2.1254 0.0213
0 4 -12 2.6106 -0.0595
0 4 -11 -3.1504 0.0788
0 4 -10 3.7695 -0.0668
0 4 -9 -4.4903 0.0277
0 4 -8 5.3191 0.0195
0 4 -7 -6.2363 -0.0508
0 4 -6 7.1952 0.0497
0 4 -5 -8.1313 -0.0168
0 4 -4 8.9759 -0.0301
0 4 -3 -9.6699 0.0647
0 4 -2 10.1709 -0.0652
0 4 -1 -10.4540 0.0265
0 4 0 10.5063 0.0368
0 4 1 -10.3220 -0.0973
0 4 2 9.9018 0.1276
0 4 3 -9.2576 -0.1141
0 4 4 8.4200 0.0634
0 4 5 -7.4422 0.0013
0 4 6 6.3972 -0.0522
0 4 7 -5.3651 0.0698
0 4 8 4.4154 -0.0524
0 4 9 -3.5907 0.0153
0 4 10 2.8990 0.0185
0 4 11 -2.3181 -0.0305
0 4 12 1.8107 0.0162
0 4 13 -1.3436 0.0130
0 4 14 0.9026 -0.0371
0 4 15 -0.4975 0.0383
0 4 16 0.1549 -0.0113
0 4 17 0.0960 -0.0339
0 4 18 -0.2390 0.0766
0 5 -17 -0.5095 0.0662
0 5 -16 0.7677 -0.0366
0 5 -15 -1.1012 0.0205
0 5 -14 1.4990 -0.0256
0 5 -13 -1.9469 0.0476
0 5 -12 2.4356 -0.0724
0 5 -11 -2.9642 0.0835
0 5 -10 3.5383 -0.0711
0 5 -9 -4.1627 0.0379
0 5 -8 4.8330 0.0016
0 5 -7 -5.5294 -0.0286
0 5 -6 6.2182 0.0305
0 5 -5 -6.8580 -0.0074
0 5 -4 7.4096 -0.0265
0 5 -3 -7.8439 0.0505
0 5 -2 8.1445 -0.0479
0 5 -1 -8.3040 0.0156
0 5 0 8.3185 0.0339
0 5 1 -8.1825 -0.0778
0 5 2 7.8900 0.0942
0 5 3 -7.4408 -0.0735
0 5 4 6.8490 0.0231
0 5 5 -6.1485 0.0358
0 5 6 5.3910 -0.0785
0 5 7 -4.6352 0.0875
0 5 8 3.9316 -0.0607
0 5 9 -3.3088 0.0104
0 5 10 2.7680 0.0441
0 5 11 -2.2872 -0.0863
0 5 12 1.8365 0.1106
0 5 13 -1.3936 -0.1226
0 5 14 0.9565 0.1344
0 5 15 -0.5455 -0.1555
0 5 16 0.1942 0.1865
0 5 17 0.0645 -0.2175
0 6 -16 0.5014 -0.0677
0 6 -15 -0.7991 0.0524
0 6 -14 1.1780 -0.0499
0 6 -13 -1.6270 0.0594
0 6 -12 2.1323 -0.0726
0 6 -11 -2.6805 0.0783
0 6 -10 3.2593 -0.0690
0 6 -9 -3.8549 0.0460
0 6 -8 4.4490 -0.0191
0 6 -7 -5.0182 0.0012
0 6 -6 5.5359 -0.0011
0 6 -5 -5.9786 0.0179
0 6 -4 6.3311 -0.0406
0 6 -3 -6.5896 0.0538
0 6 -2 6.7591 -0.0457
0 6 -1 -6.8466 0.0154
0 6 0 6.8541 0.0257
0 6 1 -6.7747 -0.0589
0 6 2 6.5950 0.0672
0 6 3 -6.3029 -0.0447
0 6 4 5.8982 -0.0006
0 6 5 -5.3990 0.0492
0 6 6 4.8405 -0.0789
0 6 7 -4.2668 0.0747
0 6 8 3.7167 -0.0340
0 6 9 -3.2122 -0.0330
0 6 10 2.7535 0.1097
0 6 11 -2.3241 -0.1811
0 6 12 1.9026 0.2396
0 6 13 -1.4768 -0.2855
0 6 14 1.0530 0.3234
0 6 15 -0.6557 -0.3562
0 6 16 0.3189 0.3808
0 7 -15 -0.4978 0.0564
0 7 -14 0.8330 -0.0449
0 7 -13 -1.2594 0.0409
0 7 -12 1.7655 -0.0411
0 7 -11 -2.3334 0.0394
0 7 -10 2.9402 -0.0313
0 7 -9 -3.5592 0.0175
0 7 -8 4.1606 -0.0037
0 7 -7 -4.7145 -0.0020
0 7 -6 5.1953 -0.0050
0 7 -5 -5.5869 0.0227
0 7 -4 5.8857 -0.0419
0 7 -3 -6.0996 0.0507
0 7 -2 6.2429 -0.0410
0 7 -1 -6.3273 0.0137
0 7 0 6.3547 0.0212
0 7 1 -6.3145 -0.0482
0 7 2 6.1871 0.0544
0 7 3 -5.9540 -0.0361
0 7 4 5.6084 0.0015
0 7 5 -5.1623 0.0323
0 7 6 4.6463 -0.0465
0 7 7 -4.1010 0.0287
0 7 8 3.5645 0.0228
0 7 9 -3.0614 -0.0988
0 7 10 2.5978 0.1848
0 7 11 -2.1651 -0.2668
0 7 12 1.7500 0.3362
0 7 13 -1.3462 -0.3900
0 7 14 0.9612 0.4282
0 7 15 -0.6156 -0.4501
0 8 -13 -0.8894 -0.0104
0 8 -12 1.3397 0.0280
0 8 -11 -1.8735 -0.0432
0 8 -10 2.4685 0.0572
0 8 -9 -3.0948 -0.0686
0 8 -8 3.7182 0.0734
0 8 -7 -4.3045 -0.0671
0 8 -6 4.8252 0.0482
0 8 -5 -5.2625 -0.0207
0 8 -4 5.6115 -0.0064
0 8 -3 -5.8780 0.0229
0 8 -2 6.0724 -0.0220
0 8 -1 -6.2013 0.0047
0 8 0 6.2610 0.0206
0 8 1 -6.2360 -0.0413
0 8 2 6.1044 0.0473
0 8 3 -5.8476 -0.0360
0 8 4 5.4610 0.0145
0 8 5 -4.9603 0.0033
0 8 6 4.3809 -0.0029
0 8 7 -3.7687 -0.0246
0 8 8 3.1682 0.0790
0 8 9 -2.6112 -0.1514
0 8 10 2.1119 0.2286
0 8 11 -1.6690 -0.2984
0 8 12 1.2743 0.3527
0 8 13 -0.9219 -0.3882
0 9 -11 -1.2434 -0.1404
0 9 -10 1.7367 0.1658
0 9 -9 -2.2867 -0.1812
0 9 -8 2.8634 0.1826
0 9 -7 -3.4338 -0.1673
0 9 -6 3.9676 0.1359
0 9 -5 -4.4424 -0.0941
0 9 -4 4.8457 0.0515
0 9 -3 -5.1740 -0.0190
0 9 -2 5.4272 0.0033
0 9 -1 -5.6027 -0.0049
0 9 0 5.6900 0.0172
0 9 1 -5.6710 -0.0300
0 9 2 5.5250 0.0350
0 9 3 -5.2380 -0.0298
0 9 4 4.8119 0.0194
0 9 5 -4.2693 -0.0142
0 9 6 3.6514 0.0243
0 9 7 -3.0092 -0.0552
0 9 8 2.3919 0.1045
0 9 9 -1.8354 -0.1635
0 9 10 1.3579 0.2206
0 10 -8 1.6535 0.2511
0 10 -7 -2.1082 -0.2318
0 10 -6 2.5595 0.1931
0 10 -5 -2.9832 -0.1417
0 10 -4 3.3614 0.0881
0 10 -3 -3.6826 -0.0435
0 10 -2 3.9390 0.0155
0 10 -1 -4.1215 -0.0057
0 10 0 4.2173 0.0089
0 10 1 -4.2096 -0.0165
0 10 2 4.0821 0.0209
0 10 3 -3.8264 -0.0192
0 10 4 3.4492 0.0148
0 10 5 -2.9751 -0.0149
0 10 6 2.4441 0.0269
0 10 7 -1.9040 -0.0538
0 10 8 1.3990 0.0922
0 10 9 -0.9611 -0.1339
0 11 -4 1.6042 0.0716
0 11 -3 -1.8330 -0.0303
0 11 -1 -2.1567 0.0023
0 11 0 2.2345 0.0028
0 11 1 -2.2419 -0.0124
0 11 2 2.1687 0.0187
0 11 3 -2.0102 -0.0184
0 11 4 1.7725 0.0138
1 1 -19 -0.2835 0.1772
1 1 -18 0.3730 -0.1067
1 1 -17 -0.5351 0.0141
1 1 -16 0.7793 0.0658
1 1 -15 -1.0998 -0.1036
1 1 -14 1.4835 0.0895
1 1 -13 -1.9250 -0.0369
1 1 -12 2.4383 -0.0235
1 1 -11 -3.0595 0.0598
1 1 -10 3.8368 -0.0547
1 1 -9 -4.8112 0.0141
1 1 -8 5.9948 0.0358
1 1 -7 -7.3564 -0.0628
1 1 -6 8.8209 0.0459
1 1 -5 -10.2826 0.0127
1 1 -4 11.6272 -0.0875
1 1 -3 -12.7536 0.1413
1 1 -2 13.5884 -0.1445
1 1 -1 -14.0884 0.0896
1 1 0 14.2349 0.0035
1 1 1 -14.0259 -0.0971
1 1 2 13.4719 0.1533
1 1 3 -12.5984 -0.1522
1 1 4 11.4529 0.1006
1 1 5 -10.1099 -0.0282
1 1 6 8.6681 -0.0287
1 1 7 -7.2368 0.0443
1 1 8 5.9154 -0.0167
1 1 9 -4.7723 -0.0336
1 1 10 3.8328 0.0747
1 1 11 -3.0808 -0.0812
1 1 12 2.4736 0.0474
1 1 13 -1.9631 0.0087
1 1 14 1.5155 -0.0554
1 1 15 -1.1200 0.0626
1 1 16 0.7858 -0.0177
1 1 17 -0.5291 -0.0680
1 1 18 0.3582 0.1640
1 1 19 -0.2646 -0.2344
1 2 -18 0.3731 -0.0096
1 2 -17 -0.5436 -0.0595
1 2 -16 0.7920 0.1162
1 2 -15 -1.1125 -0.1361
1 2 -14 1.4931 0.1112
1 2 -13 -1.9286 -0.0543
1 2 -12 2.4312 -0.0070
1 2 -11 -3.0334 0.0438
1 2 -10 3.7789 -0.0409
1 2 -9 -4.7039 0.0039
1 2 -8 5.8178 0.0429
1 2 -7 -7.0895 -0.0695
1 2 -6 8.4470 0.0560
1 2 -5 -9.7900 -0.0038
1 2 -4 11.0109 -0.0641
1 2 -3 -12.0156 0.1138
1 2 -2 12.7371 -0.1181
1 2 -1 -13.1382 0.0700
1 2 0 13.2066 0.0132
1 2 1 -12.9463 -0.0971
1 2 2 12.3737 0.1475
1 2 3 -11.5186 -0.1463
1 2 4 10.4298 0.0996
1 2 5 -9.1787 -0.0338
1 2 6 7.8558 -0.0182
1 2 7 -6.5584 0.0337
1 2 8 5.3714 -0.0112
1 2 9 -4.3493 -0.0305
1 2 10 3.5067 0.0629
1 2 11 -2.8218 -0.0637
1 2 12 2.2517 0.0289
1 2 13 -1.7528 0.0249
1 2 14 1.2989 -0.0691
1 2 15 -0.8882 0.0775
1 2 16 0.5382 -0.0400
1 2 17 -0.2718 -0.0318
1 2 18 0.1023 0.1100
1 3 -18 0.3817 0.0361
1 3 -17 -0.5587 -0.0803
1 3 -16 0.8077 0.1147
1 3 -15 -1.1246 -0.1205
1 3 -14 1.4986 0.0917
1 3 -13 -1.9237 -0.0391
1 3 -12 2.4079 -0.0141
1 3 -11 -2.9753 0.0441
1 3 -10 3.6594 -0.0379
1 3 -9 -4.4870 0.0014
1 3 -8 5.4622 0.0440
1 3 -7 -6.5549 -0.0717
1 3 -6 7.7009 0.0637
1 3 -5 -8.8137 -0.0207
1 3 -4 9.8027 -0.0377
1 3 -3 -10.5913 0.0822
1 3 -2 11.1282 -0.0889
1 3 -1 -11.3889 0.0514
1 3 0 11.3702 0.0154
1 3 1 -11.0821 -0.0822
1 3 2 10.5436 0.1197
1 3 3 -9.7834 -0.1125
1 3 4 8.8446 0.0667
1 3 5 -7.7876 -0.0057
1 3 6 6.6870 -0.0416
1 3 7 -5.6204 0.0558
1 3 8 4.6523 -0.0353
1 3 9 -3.8192 -0.0033
1 3 10 3.1234 0.0356
1 3 11 -2.5380 -0.0427
1 3 12 2.0223 0.0213
1 3 13 -1.5414 0.0149
1 3 14 1.0808 -0.0424
1 3 15 -0.6515 0.0411
1 3 16 0.2819 -0.0049
1 3 17 -0.0037 -0.0542
1 3 18 -0.1646 0.1118
1 4 -17 -0.4726 -0.0448
1 4 -16 0.7066 0.0617
1 4 -15 -1.0091 -0.0601
1 4 -14 1.3721 0.0352
1 4 -13 -1.7883 0.0053
1 4 -12 2.2586 -0.0441
1 4 -11 -2.7946 0.0625
1 4 -10 3.4140 -0.0512
1 4 -9 -4.1295 0.0149
1 4 -8 4.9367 0.0284
1 4 -7 -5.8064 -0.0565
1 4 -6 6.6865 0.0546
1 4 -5 -7.5107 -0.0228
1 4 -4 8.2144 -0.0229
1 4 -3 -8.7474 0.0587
1 4 -2 9.0812 -0.0652
1 4 -1 -9.2079 0.0373
1 4 0 9.1339 0.0120
1 4 1 -8.8719 -0.0587
1 4 2 8.4376 0.0788
1 4 3 -7.8511 -0.0612
1 4 4 7.1419 0.0124
1 4 5 -6.3527 0.0460
1 4 6 5.5369 -0.0886
1 4 7 -4.7495 0.0981
1 4 8 4.0341 -0.0730
1 4 9 -3.4107 0.0271
1 4 10 2.8721 0.0189
1 4 11 -2.3902 -0.0485
1 4 12 1.9304 0.0575
1 4 13 -1.4688 -0.0552
1 4 14 1.0045 0.0574
1 4 15 -0.5605 -0.0772
1 4 16 0.1752 0.1158
1 4 17 0.1138 -0.1617
1 5 -17 -0.2760 0.0186
1 5 -16 0.4754 -0.0133
1 5 -15 -0.7502 0.0160
1 5 -14 1.0973 -0.0310
1 5 -13 -1.5096 0.0546
1 5 -12 1.9813 -0.0756
1 5 -11 -2.5107 0.0816
1 5 -10 3.0980 -0.0659
1 5 -9 -3.7389 0.0324
1 5 -8 4.4187 0.0052
1 5 -7 -5.1081 -0.0304
1 5 -6 5.7660 0.0322
1 5 -5 -6.3476 -0.0111
1 5 -4 6.8149 -0.0203
1 5 -3 -7.1446 0.0435
1 5 -2 7.3304 -0.0442
1 5 -1 -7.3788 0.0200
1 5 0 7.3018 0.0177
1 5 1 -7.1097 -0.0488
1 5 2 6.8094 0.0548
1 5 3 -6.4082 -0.0281
1 5 4 5.9194 -0.0231
1 5 5 -5.3679 0.0788
1 5 6 4.7889 -0.1159
1 5 7 -4.2204 0.1187
1 5 8 3.6921 -0.0852
1 5 9 -3.2155 0.0269
1 5 10 2.7813 0.0385
1 5 11 -2.3655 -0.0958
1 5 12 1.9422 0.1387
1 5 13 -1.4985 -0.1709
1 5 14 1.0430 0.2007
1 5 15 -0.6055 -0.2339
1 5 16 0.2269 0.2684
1 5 17 0.0555 -0.2938
1 6 -15 -0.4651 0.0715
1 6 -14 0.7851 -0.0705
1 6 -13 -1.1882 0.0722
1 6 -12 1.6663 -0.0721
1 6 -11 -2.2085 0.0637
1 6 -10 2.8014 -0.0438
1 6 -9 -3.4269 0.0156
1 6 -8 4.0600 0.0118
1 6 -7 -4.6695 -0.0277
1 6 -6 5.2214 0.0256
1 6 -5 -5.6857 -0.0078
1 6 -4 6.0430 -0.0147
1 6 -3 -6.2876 0.0278
1 6 -2 6.4262 -0.0215
1 6 -1 -6.4712 -0.0042
1 6 0 6.4329 0.0382
1 6 1 -6.3145 -0.0633
1 6 2 6.1127 0.0644
1 6 3 -5.8227 -0.0368
1 6 4 5.4470 -0.0110
1 6 5 -5.0007 0.0606
1 6 6 4.5114 -0.0910
1 6 7 -4.0124 0.0881
1 6 8 3.5318 -0.0497
1 6 9 -3.0836 -0.0148
1 6 10 2.6645 0.0902
1 6 11 -2.2590 -0.1620
1 6 12 1.8501 0.2223
1 6 13 -1.4312 -0.2699
1 6 14 1.0131 0.3074
1 6 15 -0.6229 -0.3357
1 7 -13 -0.9019 0.0294
1 7 -12 1.3571 -0.0030
1 7 -11 -1.8918 -0.0238
1 7 -10 2.4877 0.0503
1 7 -9 -3.1199 -0.0731
1 7 -8 3.7580 0.0863
1 7 -7 -4.3685 -0.0842
1 7 -6 4.9196 0.0658
1 7 -5 -5.3868 -0.0365
1 7 -4 5.7568 0.0078
1 7 -3 -6.0282 0.0077
1 7 -2 6.2079 -0.0021
1 7 -1 -6.3037 -0.0232
1 7 0 6.3182 0.0572
1 7 1 -6.2454 -0.0843
1 7 2 6.0734 0.0910
1 7 3 -5.7921 -0.0728
1 7 4 5.4015 0.0368
1 7 5 -4.9183 0.0013
1 7 6 4.3743 -0.0237
1 7 7 -3.8094 0.0183
1 7 8 3.2605 0.0171
1 7 9 -2.7518 -0.0747
1 7 10 2.2903 0.1417
1 7 11 -1.8695 -0.2052
1 7 12 1.4782 0.2569
1 7 13 -1.1103 -0.2937
1 7 14 0.7710 0.3152
1 8 -12 0.9949 0.1232
1 8 -11 -1.4568 -0.1709
1 8 -10 1.9953 0.2066
1 8 -9 -2.5883 -0.2250
1 8 -8 3.2065 0.2220
1 8 -7 -3.8172 -0.1958
1 8 -6 4.3888 0.1499
1 8 -5 -4.8958 -0.0941
1 8 -4 5.3219 0.0424
1 8 -3 -5.6599 -0.0087
1 8 -2 5.9082 0.0013
1 8 -1 -6.0645 -0.0192
1 8 0 6.1216 0.0520
1 8 1 -6.0659 -0.0844
1 8 2 5.8821 0.1029
1 8 3 -5.5606 -0.1011
1 8 4 5.1064 0.0831
1 8 5 -4.5435 -0.0604
1 8 6 3.9131 0.0467
1 8 7 -3.2649 -0.0517
1 8 8 2.6460 0.0772
1 8 9 -2.0897 -0.1173
1 8 10 1.6115 0.1616
1 8 11 -1.2103 -0.2001
1 9 -10 1.2475 0.3551
1 9 -9 -1.7142 -0.3703
1 9 -8 2.2283 0.3533
1 9 -7 -2.7623 -0.3047
1 9 -6 3.2868 0.2312
1 9 -5 -3.7749 -0.1460
1 9 -4 4.2058 0.0665
1 9 -3 -4.5648 -0.0090
1 9 -2 4.8412 -0.0163
1 9 -1 -5.0245 0.0092
1 9 0 5.1016 0.0209
1 9 1 -5.0563 -0.0589
1 9 2 4.8744 0.0898
1 9 3 -4.5505 -0.1049
1 9 4 4.0951 0.1044
1 9 5 -3.5373 -0.0954
1 9 6 2.9224 0.0881
1 9 7 -2.3029 -0.0899
1 9 8 1.7274 0.1027
1 10 -7 -1.4068 -0.3380
1 10 -6 1.7905 0.2514
1 10 -5 -2.1637 -0.1522
1 10 -4 2.5050 0.0590
1 10 -3 -2.7976 0.0102
1 10 -2 3.0284 -0.0442
1 10 -1 -3.1857 0.0415
1 10 0 3.2573 -0.0111
1 10 1 -3.2304 -0.0319
1 10 2 3.0951 0.0717
1 10 3 -2.8494 -0.0975
1 10 4 2.5048 0.1065
1 10 5 -2.0873 -0.1034
1 10 6 1.6353 0.0959
2 1 -19 -0.0808 0.0311
2 1 -18 0.1490 0.0226
2 1 -17 -0.2954 -0.0930
2 1 -16 0.5290 0.1508
2 1 -15 -0.8423 -0.1712
2 1 -14 1.2206 0.1458
2 1 -13 -1.6557 -0.0869
2 1 -12 2.1577 0.0219
2 1 -11 -2.7586 0.0203
2 1 -10 3.5030 -0.0240
2 1 -9 -4.4297 -0.0056
2 1 -8 5.5509 0.0449
2 1 -7 -6.8374 -0.0644
2 1 -6 8.2181 0.0447
2 1 -5 -9.5920 0.0125
2 1 -4 10.8494 -0.0840
2 1 -3 -11.8939 0.1363
2 1 -2 12.6563 -0.1421
2 1 -1 -13.0985 0.0945
2 1 0 13.2077 -0.0111
2 1 1 -12.9888 -0.0737
2 1 2 12.4586 0.1257
2 1 3 -11.6466 -0.1267
2 1 4 10.6002 0.0830
2 1 5 -9.3885 -0.0210
2 1 6 8.0993 -0.0264
2 1 7 -6.8277 0.0365
2 1 8 5.6575 -0.0080
2 1 9 -4.6440 -0.0400
2 1 10 3.8040 0.0785
2 1 11 -3.1186 -0.0848
2 1 12 2.5470 0.0545
2 1 13 -2.0472 -0.0040
2 1 14 1.5925 -0.0380
2 1 15 -1.1789 0.0452
2 1 16 0.8211 -0.0072
2 1 17 -0.5392 -0.0649
2 1 18 0.3450 0.1435
2 1 19 -0.2323 -0.1969
2 2 -18 0.1804 0.1076
2 2 -17 -0.3277 -0.1546
2 2 -16 0.5546 0.1895
2 2 -15 -0.8559 -0.1930
2 2 -14 1.2196 0.1592
2 2 -13 -1.6389 -0.0995
2 2 -12 2.1227 0.0379
2 2 -11 -2.6982 0.0008
2 2 -10 3.4029 -0.0034
2 2 -9 -4.2678 -0.0245
2 2 -8 5.2986 0.0612
2 2 -7 -6.4635 -0.0798
2 2 -6 7.6928 0.0623
2 2 -5 -8.8911 -0.0099
2 2 -4 9.9582 -0.0570
2 2 -3 -10.8092 0.1081
2 2 -2 11.3881 -0.1185
2 2 -1 -11.6705 0.0816
2 2 0 11.6575 -0.0124
2 2 1 -11.3665 -0.0589
2 2 2 10.8244 0.1021
2 2 3 -10.0658 -0.1011
2 2 4 9.1365 0.0614
2 2 5 -8.0963 -0.0064
2 2 6 7.0162 -0.0354
2 2 7 -5.9693 0.0443
2 2 8 5.0164 -0.0194
2 2 9 -4.1921 -0.0223
2 2 10 3.4984 0.0558
2 2 11 -2.9101 -0.0621
2 2 12 2.3885 0.0385
2 2 13 -1.9001 0.0001
2 2 14 1.4306 -0.0288
2 2 15 -0.9896 0.0262
2 2 16 0.6035 0.0144
2 2 17 -0.3019 -0.0806
2 2 18 0.1022 0.1465
2 3 -17 -0.3372 -0.1549
2 3 -16 0.5521 0.1690
2 3 -15 -0.8373 -0.1600
2 3 -14 1.1841 0.1243
2 3 -13 -1.5861 -0.0712
2 3 -12 2.0480 0.0200
2 3 -11 -2.5880 0.0096
2 3 -10 3.2312 -0.0074
2 3 -9 -3.9966 -0.0212
2 3 -8 4.8819 0.0573
2 3 -7 -5.8542 -0.0773
2 3 -6 6.8506 0.0656
2 3 -5 -7.7902 -0.0226
2 3 -4 8.5918 -0.0346
2 3 -3 -9.1919 0.0804
2 3 -2 9.5548 -0.0936
2 3 -1 -9.6737 0.0684
2 3 0 9.5632 -0.0174
2 3 1 -9.2496 -0.0343
2 3 2 8.7630 0.0616
2 3 3 -8.1354 -0.0517
2 3 4 7.4032 0.0102
2 3 5 -6.6097 0.0421
2 3 6 5.8041 -0.0804
2 3 7 -5.0342 0.0880
2 3 8 4.3361 -0.0644
2 3 9 -3.7244 0.0241
2 3 10 3.1890 0.0119
2 3 11 -2.7014 -0.0278
2 3 12 2.2288 0.0214
2 3 13 -1.7494 -0.0047
2 3 14 1.2640 -0.0027
2 3 15 -0.7967 -0.0145
2 3 16 0.3861 0.0587
2 3 17 -0.0699 -0.1170
2 3 18 -0.1301 0.1666
2 4 -17 -0.2283 -0.1020
2 4 -16 0.4175 0.1000
2 4 -15 -0.6788 -0.0849
2 4 -14 1.0077 0.0539
2 4 -13 -1.3978 -0.0135
2 4 -12 1.8478 -0.0227
2 4 -11 -2.3639 0.0402
2 4 -10 2.9559 -0.0319
2 4 -9 -3.6281 0.0024
2 4 -8 4.3692 0.0328
2 4 -7 -5.1466 -0.0551
2 4 -6 5.9080 0.0516
2 4 -5 -6.5921 -0.0225
2 4 -4 7.1425 -0.0188
2 4 -3 -7.5208 0.0523
2 4 -2 7.7132 -0.0617
2 4 -1 -7.7281 0.0430
2 4 0 7.5882 -0.0073
2 4 1 -7.3206 -0.0249
2 4 2 6.9502 0.0339
2 4 3 -6.4985 -0.0110
2 4 4 5.9868 -0.0369
2 4 5 -5.4403 0.0906
2 4 6 4.8874 -0.1279
2 4 7 -4.3561 0.1343
2 4 8 3.8648 -0.1091
2 4 9 -3.4160 0.0645
2 4 10 2.9951 -0.0185
2 4 11 -2.5763 -0.0149
2 4 12 2.1355 0.0325
2 4 13 -1.6633 -0.0423
2 4 14 1.1727 0.0570
2 4 15 -0.6977 -0.0859
2 4 16 0.2830 0.1281
2 4 17 0.0314 -0.1715
2 5 -15 -0.4311 0.0026
2 5 -14 0.7383 -0.0210
2 5 -13 -1.1199 0.0420
2 5 -12 1.5702 -0.0583
2 5 -11 -2.0849 0.0611
2 5 -10 2.6593 -0.0462
2 5 -9 -3.2842 0.0175
2 5 -8 3.9399 0.0141
2 5 -7 -4.5941 -0.0350
2 5 -6 5.2049 0.0366
2 5 -5 -5.7288 -0.0198
2 5 -4 6.1310 -0.0048
2 5 -3 -6.3934 0.0222
2 5 -2 6.5170 -0.0212
2 5 -1 -6.5172 0.0006
2 5 0 6.4157 0.0289
2 5 1 -6.2321 -0.0500
2 5 2 5.9798 0.0473
2 5 3 -5.6669 -0.0153
2 5 4 5.3016 -0.0377
2 5 5 -4.8966 0.0936
2 5 6 4.4704 -0.1318
2 5 7 -4.0430 0.1389
2 5 8 3.6291 -0.1139
2 5 9 -3.2317 0.0667
2 5 10 2.8408 -0.0132
2 5 11 -2.4388 -0.0339
2 5 12 2.0107 0.0693
2 5 13 -1.5553 -0.0963
2 5 14 1.0898 0.1217
2 5 15 -0.6485 -0.1499
2 5 16 0.2719 0.1782
2 6 -14 0.5009 -0.0608
2 6 -13 -0.8600 0.0540
2 6 -12 1.3012 -0.0438
2 6 -11 -1.8156 0.0278
2 6 -10 2.3905 -0.0055
2 6 -9 -3.0079 -0.0199
2 6 -8 3.6427 0.0410
2 6 -7 -4.2629 -0.0503
2 6 -6 4.8331 0.0442
2 6 -5 -5.3206 -0.0264
2 6 -4 5.7025 0.0071
2 6 -3 -5.9694 0.0015
2 6 -2 6.1253 0.0085
2 6 -1 -6.1817 -0.0356
2 6 0 6.1508 0.0688
2 6 1 -6.0397 -0.0918
2 6 2 5.8493 0.0910
2 6 3 -5.5782 -0.0620
2 6 4 5.2288 0.0126
2 6 5 -4.8131 0.0405
2 6 6 4.3526 -0.0789
2 6 7 -3.8743 0.0898
2 6 8 3.4020 -0.0711
2 6 9 -2.9498 0.0309
2 6 10 2.5187 0.0178
2 6 11 -2.1009 -0.0631
2 6 12 1.6877 0.0987
2 6 13 -1.2786 -0.1243
2 6 14 0.8858 0.1427
2 7 -12 1.0295 0.0451
2 7 -11 -1.5026 -0.0829
2 7 -10 2.0472 0.1132
2 7 -9 -2.6444 -0.1317
2 7 -8 3.2688 0.1339
2 7 -7 -3.8897 -0.1175
2 7 -6 4.4748 0.0847
2 7 -5 -4.9947 -0.0442
2 7 -4 5.4282 0.0088
2 7 -3 -5.7638 0.0086
2 7 -2 5.9982 -0.0007
2 7 -1 -6.1318 -0.0301
2 7 0 6.1636 0.0719
2 7 1 -6.0885 -0.1078
2 7 2 5.8987 0.1233
2 7 3 -5.5898 -0.1120
2 7 4 5.1673 0.0787
2 7 5 -4.6510 -0.0368
2 7 6 4.0746 0.0021
2 7 7 -3.4790 0.0136
2 7 8 2.9028 -0.0071
2 7 9 -2.3734 -0.0164
2 7 10 1.9028 0.0469
2 7 11 -1.4899 -0.0748
2 7 12 1.1271 0.0942
2 7 13 -0.8084 -0.1035
2 8 -11 -1.0370 -0.2399
2 8 -9 -1.9902 -0.2859
2 8 -8 2.5463 0.2649
2 8 -7 -3.1220 -0.2147
2 8 -6 3.6877 0.1432
2 8 -5 -4.2144 -0.0643
2 8 -4 4.6776 -0.0043
2 8 -3 -5.0593 0.0463
2 8 -2 5.3464 -0.0525
2 8 -1 -5.5282 0.0247
2 8 0 5.5934 0.0250
2 8 1 -5.5295 -0.0782
2 8 2 5.3261 0.1176
2 8 3 -4.9808 -0.1327
2 8 4 4.5054 0.1236
2 8 5 -3.9289 -0.0991
2 8 6 3.2952 0.0719
2 8 7 -2.6550 -0.0525
2 8 8 2.0557 0.0456
2 8 9 -1.5316 -0.0491
2 8 10 1.0991 0.0569
2 9 -6 2.3788 0.1854
2 9 -5 -2.8237 -0.0734
2 9 -4 3.2299 -0.0258
2 9 -3 -3.5760 0.0924
2 9 -2 3.8442 -0.1146
2 9 -1 -4.0193 0.0924
2 9 0 4.0871 -0.0376
2 9 1 -4.0347 -0.0300
2 9 2 3.8538 0.0902
2 9 3 -3.5454 -0.1287
2 9 4 3.1244 0.1410
2 9 5 -2.6219 -0.1317
2 9 6 2.0811 0.1107
2 9 7 -1.5505 -0.0881
2 10 -4 1.5159 -0.0444
2 10 -3 -1.7475 0.1173
2 10 -2 1.9285 -0.1439
2 10 -1 -2.0475 0.1230
2 10 0 2.0953 -0.0658
2 10 3 -1.7544 -0.1253
2 10 4 1.4906 0.1456
3 1 -18 -0.0636 0.0616
3 1 -17 -0.0688 -0.1096
3 1 -16 0.2948 0.1500
3 1 -15 -0.6048 -0.1625
3 1 -14 0.9797 0.1395
3 1 -13 -1.4050 -0.0904
3 1 -12 1.8827 0.0369
3 1 -11 -2.4363 -0.0027
3 1 -10 3.1033 0.0004
3 1 -9 -3.9186 -0.0255
3 1 -8 4.8952 0.0573
3 1 -7 -6.0096 -0.0707
3 1 -6 7.2004 0.0487
3 1 -5 -8.3788 0.0069
3 1 -4 9.4483 -0.0758
3 1 -3 -10.3253 0.1284
3 1 -2 10.9526 -0.1401
3 1 -1 -11.3032 0.1045
3 1 0 11.3744 -0.0364
3 1 1 -11.1789 -0.0348
3 1 2 10.7382 0.0793
3 1 3 -10.0807 -0.0813
3 1 4 9.2452 0.0460
3 1 5 -8.2850 0.0037
3 1 6 7.2656 -0.0399
3 1 7 -6.2575 0.0436
3 1 8 5.3218 -0.0141
3 1 9 -4.4973 -0.0317
3 1 10 3.7930 0.0688
3 1 11 -3.1913 -0.0781
3 1 12 2.6602 0.0565
3 1 13 -2.1699 -0.0183
3 1 14 1.7057 -0.0121
3 1 15 -1.2733 0.0133
3 1 16 0.8930 0.0218
3 1 17 -0.5880 -0.0823
3 1 18 0.3710 0.1442
3 2 -18 0.0323 0.1139
3 2 -17 -0.1604 -0.1422
3 2 -16 0.3720 0.1632
3 2 -15 -0.6616 -0.1624
3 2 -14 1.0146 0.1348
3 2 -13 -1.4189 -0.0885
3 2 -12 1.8755 0.0416
3 2 -11 -2.4019 -0.0134
3 2 -10 3.0266 0.0140
3 2 -9 -3.7740 -0.0383
3 2 -8 4.6480 0.0680
3 2 -7 -5.6205 -0.0805
3 2 -6 6.6307 0.0608
3 2 -5 -7.5962 -0.0100
3 2 -4 8.4324 -0.0539
3 2 -3 -9.0715 0.1048
3 2 -2 9.4746 -0.1210
3 2 -1 -9.6341 0.0961
3 2 0 9.5661 -0.0425
3 2 1 -9.2995 -0.0145
3 2 2 8.8665 0.0494
3 2 3 -8.2990 -0.0485
3 2 4 7.6301 0.0163
3 2 5 -6.8971 0.0277
3 2 6 6.1423 -0.0595
3 2 7 -5.4074 0.0635
3 2 8 4.7258 -0.0394
3 2 9 -4.1129 0.0019
3 2 10 3.5638 0.0286
3 2 11 -3.0570 -0.0369
3 2 12 2.5664 0.0220
3 2 13 -2.0750 0.0028
3 2 14 1.5842 -0.0167
3 2 15 -1.1156 0.0032
3 2 16 0.7025 0.0409
3 2 17 -0.3766 -0.1030
3 2 18 0.1555 0.1598
3 3 -17 -0.1814 -0.1397
3 3 -16 0.3734 0.1431
3 3 -15 -0.6407 -0.1316
3 3 -14 0.9735 0.1021
3 3 -13 -1.3614 -0.0609
3 3 -12 1.8017 0.0220
3 3 -11 -2.3029 -0.0003
3 3 -10 2.8805 0.0034
3 3 -9 -3.5456 -0.0269
3 3 -8 4.2931 0.0556
3 3 -7 -5.0922 -0.0703
3 3 -6 5.8884 0.0584
3 3 -5 -6.6133 -0.0201
3 3 -4 7.2016 -0.0303
3 3 -3 -7.6072 0.0717
3 3 -2 7.8123 -0.0865
3 3 -1 -7.8269 0.0697
3 3 0 7.6806 -0.0316
3 3 1 -7.4096 -0.0070
3 3 2 7.0478 0.0257
3 3 3 -6.6219 -0.0144
3 3 4 6.1527 -0.0220
3 3 5 -5.6593 0.0663
3 3 6 5.1606 -0.0980
3 3 7 -4.6742 0.1043
3 3 8 4.2110 -0.0853
3 3 9 -3.7702 0.0537
3 3 10 3.3391 -0.0265
3 3 11 -2.8977 0.0157
3 3 12 2.4290 -0.0214
3 3 13 -1.9299 0.0323
3 3 14 1.4169 -0.0320
3 3 15 -0.9245 0.0088
3 3 16 0.4950 0.0374
3 3 17 -0.1653 -0.0937
3 4 -16 0.2369 0.0935
3 4 -15 -0.4760 -0.0766
3 4 -14 0.7886 0.0499
3 4 -13 -1.1663 -0.0174
3 4 -12 1.6021 -0.0116
3 4 -11 -2.0947 0.0264
3 4 -10 2.6460 -0.0213
3 4 -9 -3.2543 -0.0007
3 4 -8 3.9060 0.0280
3 4 -7 -4.5705 -0.0461
3 4 -6 5.2021 0.0449
3 4 -5 -5.7492 -0.0243
3 4 -4 6.1670 -0.0056
3 4 -3 -6.4294 0.0292
3 4 -2 6.5344 -0.0342
3 4 -1 -6.5018 0.0181
3 4 0 6.3635 0.0097
3 4 1 -6.1524 -0.0324
3 4 2 5.8942 0.0346
3 4 3 -5.6042 -0.0098
3 4 4 5.2903 -0.0354
3 4 5 -4.9574 0.0847
3 4 6 4.6107 -0.1201
3 4 7 -4.2559 0.1303
3 4 8 3.8954 -0.1158
3 4 9 -3.5250 0.0876
3 4 10 3.1338 -0.0602
3 4 11 -2.7090 0.0441
3 4 12 2.2434 -0.0402
3 4 13 -1.7441 0.0402
3 4 14 1.2355 -0.0325
3 4 15 -0.7561 0.0093
3 4 16 0.3484 0.0279
3 5 -15 -0.2641 -0.0091
3 5 -14 0.5478 -0.0058
3 5 -13 -0.9091 0.0222
3 5 -12 1.3400 -0.0358
3 5 -11 -1.8326 0.0405
3 5 -10 2.3792 -0.0328
3 5 -9 -2.9686 0.0144
3 5 -8 3.5818 0.0071
3 5 -7 -4.1894 -0.0226
3 5 -6 4.7538 0.0256
3 5 -5 -5.2365 -0.0169
3 5 -4 5.6070 0.0044
3 5 -3 -5.8505 0.0011
3 5 -2 5.9702 0.0083
3 5 -1 -5.9835 -0.0318
3 5 0 5.9137 0.0600
3 5 1 -5.7816 -0.0779
3 5 2 5.5995 0.0732
3 5 3 -5.3719 -0.0420
3 5 4 5.0992 -0.0081
3 5 5 -4.7830 0.0616
3 5 6 4.4297 -0.1018
3 5 7 -4.0489 0.1179
3 5 8 3.6503 -0.1101
3 5 9 -3.2390 0.0871
3 5 10 2.8140 -0.0618
3 5 11 -2.3719 0.0438
3 5 12 1.9122 -0.0355
3 5 13 -1.4446 0.0320
3 5 14 0.9907 -0.0259
3 5 15 -0.5814 0.0124
3 6 -13 -0.6729 0.0286
3 6 -12 1.0695 -0.0195
3 6 -11 -1.5378 0.0098
3 6 -10 2.0672 0.0010
3 6 -9 -2.6435 -0.0114
3 6 -8 3.2463 0.0176
3 6 -7 -3.8484 -0.0156
3 6 -6 4.4176 0.0044
3 6 -5 -4.9221 0.0119
3 6 -4 5.3365 -0.0246
3 6 -3 -5.6465 0.0242
3 6 -2 5.8497 -0.0053
3 6 -1 -5.9519 -0.0292
3 6 0 5.9611 0.0684
3 6 1 -5.8828 -0.0972
3 6 2 5.7176 0.1030
3 6 3 -5.4641 -0.0816
3 6 4 5.1239 0.0392
3 6 5 -4.7068 0.0105
3 6 6 4.2318 -0.0518
3 6 7 -3.7246 0.0743
3 6 8 3.2112 -0.0762
3 6 9 -2.7118 0.0637
3 6 10 2.2374 -0.0469
3 6 11 -1.7913 0.0344
3 6 12 1.3742 -0.0293
3 6 13 -0.9896 0.0296
3 7 -11 -1.1435 -0.0772
3 7 -10 1.6008 0.0905
3 7 -9 -2.1176 -0.0887
3 7 -8 2.6767 0.0700
3 7 -7 -3.2549 -0.0353
3 7 -6 3.8237 -0.0106
3 7 -5 -4.3534 0.0580
3 7 -4 4.8176 -0.0941
3 7 -3 -5.1963 0.1069
3 7 -2 5.4764 -0.0906
3 7 -1 -5.6499 0.0484
3 7 0 5.7105 0.0073
3 7 1 -5.6515 -0.0591
3 7 2 5.4671 0.0914
3 7 3 -5.1561 -0.0964
3 7 4 4.7270 0.0761
3 7 5 -4.2020 -0.0411
3 7 6 3.6156 0.0049
3 7 7 -3.0096 0.0215
3 7 8 2.4244 -0.0340
3 7 9 -1.8917 0.0351
3 7 10 1.4289 -0.0314
3 7 11 -1.0407 0.0290
3 8 -8 1.7628 0.1472
3 8 -7 -2.2435 -0.0777
3 8 -6 2.7391 -0.0086
3 8 -5 -3.2220 0.0964
3 8 -4 3.6645 -0.1675
3 8 -3 -4.0418 0.2055
3 8 -2 4.3337 -0.2018
3 8 -1 -4.5235 0.1584
3 8 0 4.5973 -0.0885
3 8 1 -4.5435 0.0121
3 8 2 4.3556 0.0512
3 8 3 -4.0355 -0.0881
3 8 4 3.5982 0.0956
3 8 5 -3.0732 -0.0799
3 8 6 2.5025 0.0526
3 8 7 -1.9335 -0.0249
3 8 8 1.4098 0.0037
3 8 9 -0.9636 0.0097
3 9 -6 1.3724 0.0115
3 9 -5 -1.7215 0.1010
3 9 -4 2.0521 -0.1961
3 9 -3 -2.3407 0.2540
3 9 -2 2.5674 -0.2629
3 9 -1 -2.7160 0.2229
3 9 0 2.7737 -0.1470
3 9 1 -2.7314 0.0562
3 9 2 2.5852 0.0268
3 9 3 -2.3395 -0.0849
3 9 4 2.0097 0.1111
3 9 5 -1.6231 -0.1083
4 1 -17 -0.0099 0.0199
4 1 -16 0.2387 0.0094
4 1 -15 -0.5539 -0.0259
4 1 -14 0.9318 0.0221
4 1 -13 -1.3497 -0.0022
4 1 -12 1.7992 -0.0192
4 1 -11 -2.2918 0.0259
4 1 -10 2.8548 -0.0095
4 1 -9 -3.5172 -0.0251
4 1 -8 4.2923 0.0606
4 1 -7 -5.1641 -0.0760
4 1 -6 6.0852 0.0578
4 1 -5 -6.9851 -0.0079
4 1 -4 7.7875 -0.0558
4 1 -3 -8.4293 0.1072
4 1 -2 8.8719 -0.1247
4 1 -1 -9.1044 0.1015
4 1 0 9.1367 -0.0493
4 1 1 -8.9892 -0.0080
4 1 2 8.6841 0.0453
4 1 3 -8.2421 -0.0492
4 1 4 7.6854 0.0235
4 1 5 -7.0415 0.0137
4 1 6 6.3456 -0.0399
4 1 7 -5.6372 0.0401
4 1 8 4.9521 -0.0140
4 1 9 -4.3140 -0.0243
4 1 10 3.7290 0.0550
4 1 11 -3.1883 -0.0634
4 1 12 2.6760 0.0480
4 1 13 -2.1807 -0.0214
4 1 14 1.7036 0.0031
4 1 15 -1.2603 -0.0092
4 1 16 0.8747 0.0436
4 1 17 -0.5687 -0.0954
4 2 -17 -0.1427 -0.0070
4 2 -16 0.3515 0.0206
4 2 -15 -0.6419 -0.0258
4 2 -14 0.9965 0.0173
4 2 -13 -1.3964 0.0016
4 2 -12 1.8327 -0.0195
4 2 -11 -2.3111 0.0236
4 2 -10 2.8488 -0.0075
4 2 -9 -3.4630 -0.0242
4 2 -8 4.1565 0.0566
4 2 -7 -4.9072 -0.0719
4 2 -6 5.6673 0.0580
4 2 -5 -6.3723 -0.0165
4 2 -4 6.9580 -0.0378
4 2 -3 -7.3774 0.0829
4 2 -2 7.6112 -0.1000
4 2 -1 -7.6682 0.0831
4 2 0 7.5772 -0.0418
4 2 1 -7.3738 -0.0039
4 2 2 7.0892 0.0332
4 2 3 -6.7453 -0.0347
4 2 4 6.3556 0.0116
4 2 5 -5.9298 0.0211
4 2 6 5.4783 -0.0450
4 2 7 -5.0127 0.0484
4 2 8 4.5431 -0.0318
4 2 9 -4.0736 0.0073
4 2 10 3.6009 0.0095
4 2 11 -3.1168 -0.0082
4 2 12 2.6150 -0.0099
4 2 13 -2.0990 0.0322
4 2 14 1.5864 -0.0413
4 2 15 -1.1071 0.0247
4 2 16 0.6954 0.0184
4 2 17 -0.3785 -0.0754
4 3 -15 -0.5901 -0.0402
4 3 -14 0.9249 0.0256
4 3 -13 -1.3147 -0.0043
4 3 -12 1.7482 -0.0151
4 3 -11 -2.2235 0.0225
4 3 -10 2.7456 -0.0122
4 3 -9 -3.3194 -0.0129
4 3 -8 3.9381 0.0414
4 3 -7 -4.5765 -0.0589
4 3 -6 5.1912 0.0551
4 3 -5 -5.7292 -0.0300
4 3 -4 6.1421 -0.0058
4 3 -3 -6.4007 0.0358
4 3 -2 6.5018 -0.0462
4 3 -1 -6.4674 0.0326
4 3 0 6.3346 -0.0029
4 3 1 -6.1425 -0.0270
4 3 2 5.9211 0.0414
4 3 3 -5.6858 -0.0325
4 3 4 5.4390 0.0044
4 3 5 -5.1754 0.0297
4 3 6 4.8884 -0.0549
4 3 7 -4.5725 0.0624
4 3 8 4.2240 -0.0539
4 3 9 -3.8389 0.0401
4 3 10 3.4127 -0.0340
4 3 11 -2.9427 0.0432
4 3 12 2.4331 -0.0651
4 3 13 -1.8996 0.0876
4 3 14 1.3709 -0.0960
4 3 15 -0.8845 0.0800
4 3 16 0.4780 -0.0407
4 4 -15 -0.3991 -0.0449
4 4 -14 0.7087 0.0279
4 4 -13 -1.0860 -0.0060
4 4 -12 1.5186 -0.0151
4 4 -11 -1.9979 0.0273
4 4 -10 2.5191 -0.0253
4 4 -9 -3.0767 0.0095
4 4 -8 3.6577 0.0128
4 4 -7 -4.2366 -0.0311
4 4 -6 4.7764 0.0374
4 4 -5 -5.2359 -0.0303
4 4 -4 5.5806 0.0164
4 4 -3 -5.7929 -0.0063
4 4 -2 5.8771 0.0085
4 4 -1 -5.8560 -0.0247
4 4 0 5.7624 0.0477
4 4 1 -5.6273 -0.0649
4 4 2 5.4707 0.0653
4 4 3 -5.2988 -0.0446
4 4 4 5.1064 0.0087
4 4 5 -4.8829 0.0299
4 4 6 4.6186 -0.0581
4 4 7 -4.3079 0.0690
4 4 8 3.9493 -0.0651
4 4 9 -3.5440 0.0562
4 4 10 3.0947 -0.0540
4 4 11 -2.6070 0.0649
4 4 12 2.0925 -0.0868
4 4 13 -1.5716 0.1097
4 4 14 1.0739 -0.1212
4 4 15 -0.6336 0.1135
4 5 -14 0.4599 0.0096
4 5 -13 -0.8018 0.0052
4 5 -12 1.2105 -0.0222
4 5 -11 -1.6754 0.0362
4 5 -10 2.1874 -0.0424
4 5 -9 -2.7360 0.0394
4 5 -8 3.3059 -0.0304
4 5 -7 -3.8735 0.0213
4 5 -6 4.4077 -0.0167
4 5 -5 -4.8756 0.0172
4 5 -4 5.2495 -0.0182
4 5 -3 -5.5146 0.0130
4 5 -2 5.6711 0.0029
4 5 -1 -5.7321 -0.0284
4 5 0 5.7159 0.0556
4 5 1 -5.6385 -0.0732
4 5 2 5.5078 0.0720
4 5 3 -5.3234 -0.0499
4 5 4 5.0799 0.0131
4 5 5 -4.7733 0.0263
4 5 6 4.4052 -0.0561
4 5 7 -3.9841 0.0696
4 5 8 3.5236 -0.0687
4 5 9 -3.0383 0.0617
4 5 10 2.5418 -0.0589
4 5 11 -2.0460 0.0665
4 5 12 1.5636 -0.0836
4 5 13 -1.1105 0.1033
4 5 14 0.7062 -0.1162
4 6 -12 0.8642 -0.0218
4 6 -11 -1.2656 0.0328
4 6 -10 1.7233 -0.0462
4 6 -9 -2.2284 0.0601
4 6 -8 2.7675 -0.0744
4 6 -7 -3.3209 0.0903
4 6 -6 3.8623 -0.1077
4 6 -5 -4.3627 0.1234
4 6 -4 4.7952 -0.1314
4 6 -3 -5.1405 0.1250
4 6 -2 5.3885 -0.1010
4 6 -1 -5.5370 0.0626
4 6 0 5.5874 -0.0194
4 6 1 -5.5410 -0.0161
4 6 2 5.3964 0.0331
4 6 3 -5.1518 -0.0277
4 6 4 4.8088 0.0043
4 6 5 -4.3773 0.0265
4 6 6 3.8767 -0.0532
4 6 7 -3.3347 0.0681
4 6 8 2.7819 -0.0706
4 6 9 -2.2463 0.0662
4 6 10 1.7487 -0.0625
4 6 11 -1.3017 0.0650
4 6 12 0.9124 -0.0742
4 7 -10 1.0987 -0.0184
4 7 -9 -1.4959 0.0488
4 7 -8 1.9423 -0.0904
4 7 -7 -2.4236 0.1408
4 7 -6 2.9184 -0.1946
4 7 -5 -3.4002 0.2434
4 7 -4 3.8413 -0.2766
4 7 -3 -4.2167 0.2844
4 7 -2 4.5068 -0.2620
4 7 -1 -4.6972 0.2129
4 7 0 4.7774 -0.1482
4 7 1 -4.7392 0.0838
4 7 2 4.5778 -0.0346
4 7 3 -4.2940 0.0092
4 7 4 3.8979 -0.0075
4 7 5 -3.4116 0.0217
4 7 6 2.8683 -0.0410
4 7 7 -2.3080 0.0563
4 7 8 1.7705 -0.0634
4 7 9 -1.2881 0.0636
4 7 10 0.8810 -0.0608
4 8 -7 -1.2815 0.1353
4 8 -6 1.6520 -0.2198
4 8 -5 -2.0314 0.3006
4 8 -4 2.3939 -0.3620
4 8 -3 -2.7137 0.3900
4 8 -2 2.9684 -0.3767
4 8 -1 -3.1394 0.3239
4 8 0 3.2129 -0.2438
4 8 1 -3.1794 0.1548
4 8 2 3.0347 -0.0764
4 8 3 -2.7830 0.0220
4 8 4 2.4387 0.0035
4 8 5 -2.0276 -0.0047
4 8 6 1.5848 -0.0084
5 1 -17 -0.1049 0.2289
5 1 -16 0.3367 -0.2124
5 1 -15 -0.6558 0.1912
5 1 -14 1.0370 -0.1731
5 1 -13 -1.4524 0.1584
5 1 -12 1.8844 -0.1403
5 1 -11 -2.3330 0.1102
5 1 -10 2.8142 -0.0645
5 1 -9 -3.3491 0.0092
5 1 -8 3.9489 0.0408
5 1 -7 -4.6035 -0.0685
5 1 -6 5.2776 0.0630
5 1 -5 -5.9186 -0.0265
5 1 -4 6.4706 -0.0256
5 1 -3 -6.8910 0.0707
5 1 -2 7.1605 -0.0895
5 1 -1 -7.2839 0.0749
5 1 0 7.2826 -0.0347
5 1 1 -7.1828 -0.0123
5 1 2 7.0048 0.0458
5 1 3 -6.7593 -0.0543
5 1 4 6.4487 0.0395
5 1 5 -6.0740 -0.0146
5 1 6 5.6404 -0.0037
5 1 7 -5.1595 0.0041
5 1 8 4.6466 0.0130
5 1 9 -4.1168 -0.0372
5 1 10 3.5805 0.0539
5 1 11 -3.0439 -0.0534
5 1 12 2.5118 0.0365
5 1 13 -1.9933 -0.0142
5 1 14 1.5043 0.0018
5 1 15 -1.0670 -0.0108
5 1 16 0.7038 0.0420
5 1 17 -0.4297 -0.0852
5 2 -16 0.3991 -0.1582
5 2 -15 -0.6895 0.1490
5 2 -14 1.0483 -0.1403
5 2 -13 -1.4530 0.1326
5 2 -12 1.8868 -0.1208
5 2 -11 -2.3448 0.0981
5 2 -10 2.8336 -0.0611
5 2 -9 -3.3626 0.0143
5 2 -8 3.9325 0.0305
5 2 -7 -4.5258 -0.0589
5 2 -6 5.1057 0.0610
5 2 -5 -5.6231 -0.0376
5 2 -4 6.0313 0.0002
5 2 -3 -6.3004 0.0333
5 2 -2 6.4258 -0.0473
5 2 -1 -6.4275 0.0354
5 2 0 6.3409 -0.0038
5 2 1 -6.2030 -0.0330
5 2 2 6.0405 0.0590
5 2 3 -5.8633 -0.0653
5 2 4 5.6664 0.0534
5 2 5 -5.4366 -0.0337
5 2 6 5.1600 0.0186
5 2 7 -4.8277 -0.0156
5 2 8 4.4378 0.0229
5 2 9 -3.9938 -0.0307
5 2 10 3.5028 0.0278
5 2 11 -2.9754 -0.0085
5 2 12 2.4270 -0.0232
5 2 13 -1.8796 0.0548
5 2 14 1.3615 -0.0712
5 2 15 -0.9037 0.0623
5 2 16 0.5335 -0.0287
5 3 -15 -0.5506 0.0554
5 3 -14 0.8864 -0.0585
5 3 -13 -1.2824 0.0638
5 3 -12 1.7217 -0.0669
5 3 -11 -2.1941 0.0612
5 3 -10 2.6966 -0.0420
5 3 -9 -3.2281 0.0106
5 3 -8 3.7809 0.0248
5 3 -7 -4.3343 -0.0529
5 3 -6 4.8535 0.0647
5 3 -5 -5.2973 -0.0581
5 3 -4 5.6292 0.0399
5 3 -3 -5.8298 -0.0216
5 3 -2 5.9032 0.0143
5 3 -1 -5.8745 -0.0224
5 3 0 5.7808 0.0417
5 3 1 -5.6579 -0.0621
5 3 2 5.5285 0.0730
5 3 3 -5.3977 -0.0695
5 3 4 5.2541 0.0545
5 3 5 -5.0774 -0.0369
5 3 6 4.8470 0.0257
5 3 7 -4.5485 -0.0247
5 3 8 4.1768 0.0298
5 3 9 -3.7354 -0.0308
5 3 10 3.2354 0.0179
5 3 11 -2.6941 0.0128
5 3 12 2.1345 -0.0559
5 3 13 -1.5853 0.0982
5 3 14 1.0787 -0.1248
5 3 15 -0.6461 0.1261
5 4 -14 0.6108 0.0119
5 4 -13 -0.9789 0.0042
5 4 -12 1.4034 -0.0224
5 4 -11 -1.8715 0.0359
5 4 -10 2.3743 -0.0383
5 4 -9 -2.9046 0.0274
5 4 -8 3.4506 -0.0072
5 4 -7 -3.9916 -0.0145
5 4 -6 4.4977 0.0300
5 4 -5 -4.9348 -0.0354
5 4 -4 5.2738 0.0330
5 4 -3 -5.4991 -0.0290
5 4 -2 5.6137 0.0296
5 4 -1 -5.6366 -0.0369
5 4 0 5.5946 0.0478
5 4 1 -5.5121 -0.0554
5 4 2 5.4028 0.0537
5 4 3 -5.2659 -0.0413
5 4 4 5.0896 0.0230
5 4 5 -4.8578 -0.0072
5 4 6 4.5574 0.0011
5 4 7 -4.1836 -0.0063
5 4 8 3.7416 0.0170
5 4 9 -3.2449 -0.0228
5 4 10 2.7124 0.0139
5 4 11 -2.1666 0.0135
5 4 12 1.6321 -0.0545
5 4 13 -1.1349 0.0973
5 4 14 0.7008 -0.1282
5 5 -12 1.0063 -0.0177
5 5 -11 -1.4226 0.0466
5 5 -10 1.8819 -0.0702
5 5 -9 -2.3763 0.0839
5 5 -8 2.8949 -0.0873
5 5 -7 -3.4204 0.0845
5 5 -6 3.9280 -0.0803
5 5 -5 -4.3888 0.0778
5 5 -4 4.7761 -0.0764
5 5 -3 -5.0719 0.0728
5 5 -2 5.2705 -0.0640
5 5 -1 -5.3769 0.0499
5 5 0 5.4017 -0.0345
5 5 1 -5.3545 0.0239
5 5 2 5.2392 -0.0230
5 5 3 -5.0529 0.0319
5 5 4 4.7897 -0.0456
5 5 5 -4.4463 0.0560
5 5 6 4.0266 -0.0563
5 5 7 -3.5441 0.0449
5 5 8 3.0200 -0.0269
5 5 9 -2.4797 0.0116
5 5 10 1.9487 -0.0081
5 5 11 -1.4493 0.0204
5 5 12 1.0003 -0.0455
5 6 -10 1.2467 -0.1183
5 6 -9 -1.6456 0.1562
5 6 -8 2.0829 -0.1888
5 6 -7 -2.5466 0.2160
5 6 -6 3.0176 -0.2387
5 6 -5 -3.4708 0.2565
5 6 -4 3.8797 -0.2666
5 6 -3 -4.2215 0.2651
5 6 -2 4.4802 -0.2498
5 6 -1 -4.6468 0.2219
5 6 0 4.7171 -0.1875
5 6 1 -4.6887 0.1551
5 6 2 4.5595 -0.1318
5 6 3 -4.3281 0.1206
5 6 4 3.9977 -0.1184
5 6 5 -3.5792 0.1184
5 6 6 3.0935 -0.1134
5 6 7 -2.5696 0.1000
5 6 8 2.0408 -0.0798
5 6 9 -1.5385 0.0589
5 6 10 1.0879 -0.0439
5 7 -7 -1.4490 0.3001
5 7 -6 1.8169 -0.3527
5 7 -5 -2.1926 0.3976
5 7 -4 2.5513 -0.4280
5 7 -3 -2.8680 0.4366
5 7 -2 3.1213 -0.4192
5 7 -1 -3.2944 0.3775
5 7 0 3.3755 -0.3195
5 7 1 -3.3567 0.2571
5 7 2 3.2342 -0.2026
5 7 3 -3.0100 0.1636
5 7 4 2.6938 -0.1411
5 7 5 -2.3053 0.1302
5 7 6 1.8730 -0.1233
5 7 7 -1.4312 0.1140
5 8 -1 -1.6632 0.4089
5 8 0 1.7264 -0.3379
6 1 -15 -0.7001 0.3716
6 1 -14 1.0665 -0.3469
6 1 -13 -1.4730 0.3133
6 1 -12 1.8987 -0.2696
6 1 -11 -2.3365 0.2128
6 1 -10 2.7931 -0.1434
6 1 -9 -3.2809 0.0683
6 1 -8 3.8064 -0.0007
6 1 -7 -4.3595 -0.0447
6 1 -6 4.9107 0.0585
6 1 -5 -5.4173 -0.0419
6 1 -4 5.8359 0.0071
6 1 -3 -6.1365 0.0269
6 1 -2 6.3114 -0.0432
6 1 -1 -6.3750 0.0340
6 1 0 6.3554 -0.0035
6 1 1 -6.2816 -0.0345
6 1 2 6.1722 0.0647
6 1 3 -6.0303 -0.0771
6 1 4 5.8453 0.0718
6 1 5 -5.6005 -0.0576
6 1 6 5.2820 0.0458
6 1 7 -4.8850 -0.0440
6 1 8 4.4154 0.0517
6 1 9 -3.8882 -0.0613
6 1 10 3.3235 0.0630
6 1 11 -2.7438 -0.0515
6 1 12 2.1729 0.0293
6 1 13 -1.6349 -0.0062
6 1 14 1.1541 -0.0060
6 1 15 -0.7518 -0.0001
6 2 -15 -0.6046 0.2628
6 2 -14 0.9464 -0.2520
6 2 -13 -1.3445 0.2341
6 2 -12 1.7798 -0.2076
6 2 -11 -2.2419 0.1692
6 2 -10 2.7296 -0.1173
6 2 -9 -3.2455 0.0562
6 2 -8 3.7863 0.0042
6 2 -7 -4.3353 -0.0510
6 2 -6 4.8603 0.0746
6 2 -5 -5.3202 -0.0731
6 2 -4 5.6767 0.0541
6 2 -3 -5.9070 -0.0309
6 2 -2 6.0117 0.0170
6 2 -1 -6.0130 -0.0195
6 2 0 5.9462 0.0368
6 2 1 -5.8456 -0.0602
6 2 2 5.7330 0.0795
6 2 3 -5.6112 -0.0885
6 2 4 5.4658 0.0879
6 2 5 -5.2731 -0.0837
6 2 6 5.0099 0.0827
6 2 7 -4.6621 -0.0878
6 2 8 4.2281 0.0949
6 2 9 -3.7196 -0.0953
6 2 10 3.1579 0.0807
6 2 11 -2.5706 -0.0484
6 2 12 1.9887 0.0044
6 2 13 -1.4437 0.0391
6 2 14 0.9647 -0.0682
6 2 15 -0.5748 0.0744
6 3 -14 0.6869 -0.0987
6 3 -13 -1.0640 0.1006
6 3 -12 1.4935 -0.0990
6 3 -11 -1.9619 0.0885
6 3 -10 2.4618 -0.0644
6 3 -9 -2.9884 0.0267
6 3 -8 3.5324 0.0182
6 3 -7 -4.0750 -0.0601
6 3 -6 4.5856 0.0885
6 3 -5 -5.0278 -0.0984
6 3 -4 5.3693 0.0914
6 3 -3 -5.5918 -0.0751
6 3 -2 5.6972 0.0588
6 3 -1 -5.7064 -0.0488
6 3 0 5.6501 0.0462
6 3 1 -5.5577 -0.0479
6 3 2 5.4463 0.0496
6 3 3 -5.3160 -0.0499
6 3 4 5.1520 0.0512
6 3 5 -4.9321 -0.0580
6 3 6 4.6364 0.0735
6 3 7 -4.2548 -0.0956
6 3 8 3.7906 0.1163
6 3 9 -3.2602 -0.1243
6 3 10 2.6896 0.1107
6 3 11 -2.1102 -0.0734
6 3 12 1.5545 0.0195
6 3 13 -1.0531 0.0373
6 3 14 0.6316 -0.0817
6 4 -12 1.0907 -0.0196
6 4 -11 -1.5180 0.0385
6 4 -10 1.9824 -0.0464
6 4 -9 -2.4769 0.0390
6 4 -8 2.9917 -0.0185
6 4 -7 -3.5097 -0.0077
6 4 -6 4.0053 0.0298
6 4 -5 -4.4476 -0.0406
6 4 -4 4.8082 0.0378
6 4 -3 -5.0687 -0.0242
6 4 -2 5.2257 0.0054
6 4 -1 -5.2897 0.0134
6 4 0 5.2791 -0.0296
6 4 1 -5.2113 0.0430
6 4 2 5.0954 -0.0532
6 4 3 -4.9295 0.0584
6 4 4 4.7033 -0.0545
6 4 5 -4.4048 0.0374
6 4 6 4.0271 -0.0059
6 4 7 -3.5742 -0.0352
6 4 8 3.0616 0.0755
6 4 9 -2.5143 -0.1025
6 4 10 1.9624 0.1058
6 4 11 -1.4364 -0.0829
6 4 12 0.9633 0.0398
6 5 -10 1.3471 -0.0907
6 5 -9 -1.7495 0.1156
6 5 -8 2.1816 -0.1263
6 5 -7 -2.6319 0.1268
6 5 -6 3.0809 -0.1241
6 5 -5 -3.5035 0.1250
6 5 -4 3.8736 -0.1326
6 5 -3 -4.1699 0.1459
6 5 -2 4.3806 -0.1615
6 5 -1 -4.5031 0.1762
6 5 0 4.5412 -0.1880
6 5 1 -4.4997 0.1965
6 5 2 4.3804 -0.2013
6 5 3 -4.1817 0.2001
6 5 4 3.9012 -0.1890
6 5 5 -3.5401 0.1640
6 5 6 3.1077 -0.1241
6 5 7 -2.6231 0.0732
6 5 8 2.1132 -0.0208
6 5 9 -1.6086 -0.0219
6 5 10 1.1383 0.0453
6 6 -7 -1.5522 0.2756
6 6 -6 1.9029 -0.2984
6 6 -5 -2.2551 0.3182
6 6 -4 2.5855 -0.3360
6 6 -3 -2.8714 0.3499
6 6 -2 3.0945 -0.3566
6 6 -1 -3.2429 0.3545
6 6 0 3.3096 -0.3441
6 6 1 -3.2910 0.3283
6 6 2 3.1852 -0.3101
6 6 3 -2.9921 0.2907
6 6 4 2.7165 -0.2683
6 6 5 -2.3698 0.2397
6 6 6 1.9720 -0.2023
6 6 7 -1.5502 0.1570
6 6 8 1.1347 -0.1087
7 1 -14 0.8365 -0.4124
7 1 -13 -1.2054 0.3852
7 1 -12 1.6129 -0.3416
7 1 -11 -2.0507 0.2811
7 1 -10 2.5208 -0.2057
7 1 -9 -3.0289 0.1224
7 1 -8 3.5747 -0.0434
7 1 -7 -4.1439 -0.0177
7 1 -6 4.7054 0.0509
7 1 -5 -5.2172 -0.0549
7 1 -4 5.6375 0.0380
7 1 -3 -5.9381 -0.0146
7 1 -2 6.1122 -0.0005
7 1 -1 -6.1744 -0.0008
7 1 0 6.1530 0.0178
7 1 1 -6.0768 -0.0419
7 1 2 5.9645 0.0625
7 1 3 -5.8180 -0.0722
7 1 4 5.6247 0.0704
7 1 5 -5.3647 -0.0627
7 1 6 5.0206 0.0564
7 1 7 -4.5860 -0.0562
7 1 8 4.0684 0.0608
7 1 9 -3.4888 -0.0647
7 1 10 2.8774 0.0610
7 1 11 -2.2680 -0.0468
7 1 12 1.6937 0.0251
7 1 13 -1.1835 -0.0039
7 1 14 0.7591 -0.0084
7 2 -13 -0.9572 0.2589
7 2 -12 1.3633 -0.2371
7 2 -11 -1.8135 0.1997
7 2 -10 2.3037 -0.1454
7 2 -9 -2.8321 0.0776
7 2 -8 3.3919 -0.0057
7 2 -7 -3.9643 -0.0575
7 2 -6 4.5169 0.1002
7 2 -5 -5.0090 -0.1167
7 2 -4 5.4026 0.1097
7 2 -3 -5.6729 -0.0883
7 2 -2 5.8163 0.0643
7 2 -1 -5.8495 -0.0466
7 2 0 5.8018 0.0388
7 2 1 -5.7029 -0.0390
7 2 2 5.5718 0.0432
7 2 3 -5.4109 -0.0488
7 2 4 5.2079 0.0565
7 2 5 -4.9425 -0.0692
7 2 6 4.5970 0.0890
7 2 7 -4.1643 -0.1137
7 2 8 3.6521 0.1364
7 2 9 -3.0823 -0.1477
7 2 10 2.4869 0.1396
7 2 11 -1.9017 -0.1104
7 2 12 1.3614 0.0660
7 2 13 -0.8946 -0.0180
7 3 -12 1.0080 -0.0951
7 3 -11 -1.4273 0.0885
7 3 -10 1.8893 -0.0652
7 3 -9 -2.3884 0.0241
7 3 -8 2.9153 0.0289
7 3 -7 -3.4518 -0.0823
7 3 -6 3.9691 0.1230
7 3 -5 -4.4319 -0.1412
7 3 -4 4.8066 0.1343
7 3 -3 -5.0709 -0.1063
7 3 -2 5.2196 0.0663
7 3 -1 -5.2644 -0.0238
7 3 0 5.2273 -0.0134
7 3 1 -5.1308 0.0410
7 3 2 4.9892 -0.0560
7 3 3 -4.8040 0.0563
7 3 4 4.5657 -0.0394
7 3 5 -4.2608 0.0042
7 3 6 3.8797 0.0468
7 3 7 -3.4237 -0.1056
7 3 8 2.9076 0.1595
7 3 9 -2.3576 -0.1946
7 3 10 1.8071 0.2008
7 3 11 -1.2902 -0.1757
7 3 12 0.8365 0.1264
7 4 -10 1.3127 -0.0394
7 4 -9 -1.7196 0.0324
7 4 -8 2.1559 -0.0089
7 4 -7 -2.6083 -0.0222
7 4 -6 3.0550 0.0482
7 4 -5 -3.4678 -0.0575
7 4 -4 3.8179 0.0441
7 4 -3 -4.0835 -0.0087
7 4 -2 4.2544 -0.0421
7 4 -1 -4.3328 0.0989
7 4 0 4.3289 -0.1524
7 4 1 -4.2545 0.1948
7 4 2 4.1170 -0.2197
7 4 3 -3.9172 0.2220
7 4 4 3.6511 -0.1983
7 4 5 -3.3155 0.1482
7 4 6 2.9132 -0.0763
7 4 7 -2.4572 -0.0067
7 4 8 1.9705 0.0857
7 4 9 -1.4828 -0.1452
7 4 10 1.0253 0.1735
7 5 -7 -1.5688 0.1126
7 5 -6 1.9054 -0.1084
7 5 -5 -2.2346 0.1133
7 5 -4 2.5330 -0.1336
7 5 -3 -2.7794 0.1697
7 5 -2 2.9590 -0.2165
7 5 -1 -3.0649 0.2664
7 5 0 3.0966 -0.3115
7 5 1 -3.0559 0.3451
7 5 2 2.9448 -0.3619
7 5 3 -2.7637 0.3578
7 5 4 2.5142 -0.3299
7 5 5 -2.2021 0.2780
7 5 6 1.8402 -0.2061
7 5 7 -1.4494 0.1232
8 1 -12 1.0352 -0.3298
8 1 -11 -1.4368 0.2853
8 1 -10 1.8952 -0.2212
8 1 -9 -2.4129 0.1435
8 1 -8 2.9852 -0.0633
8 1 -7 -3.5933 -0.0058
8 1 -6 4.2025 0.0524
8 1 -5 -4.7670 -0.0715
8 1 -4 5.2417 0.0669
8 1 -3 -5.5931 -0.0489
8 1 -2 5.8084 0.0295
8 1 -1 -5.8957 -0.0173
8 1 0 5.8780 0.0145
8 1 1 -5.7815 -0.0176
8 1 2 5.6256 0.0206
8 1 3 -5.4165 -0.0192
8 1 4 5.1485 0.0136
8 1 5 -4.8099 -0.0077
8 1 6 4.3921 0.0065
8 1 7 -3.8971 -0.0123
8 1 8 3.3399 0.0232
8 1 9 -2.7481 -0.0338
8 1 10 2.1560 0.0384
8 1 11 -1.5991 -0.0342
8 1 12 1.1080 0.0231
8 2 -11 -1.1241 0.1824
8 2 -10 1.5584 -0.1357
8 2 -9 -2.0468 0.0699
8 2 -8 2.5815 0.0063
8 2 -7 -3.1430 -0.0786
8 2 -6 3.6991 0.1325
8 2 -5 -4.2086 -0.1583
8 2 -4 4.6312 0.1537
8 2 -3 -4.9375 -0.1247
8 2 -2 5.1163 0.0820
8 2 -1 -5.1754 -0.0368
8 2 0 5.1356 -0.0024
8 2 1 -5.0208 0.0310
8 2 2 4.8487 -0.0469
8 2 3 -4.6259 0.0491
8 2 4 4.3481 -0.0362
8 2 5 -4.0069 0.0074
8 2 6 3.5971 0.0355
8 2 7 -3.1238 -0.0866
8 2 8 2.6043 0.1356
8 2 9 -2.0669 -0.1710
8 2 10 1.5452 0.1839
8 2 11 -1.0720 -0.1716
8 3 -9 -1.4900 0.0067
8 3 -8 1.9270 0.0508
8 3 -7 -2.3878 -0.1112
8 3 -6 2.8469 0.1580
8 3 -5 -3.2712 -0.1776
8 3 -4 3.6273 0.1633
8 3 -3 -3.8898 -0.1175
8 3 -2 4.0468 0.0494
8 3 -1 -4.1014 0.0275
8 3 0 4.0671 -0.1000
8 3 1 -3.9604 0.1567
8 3 2 3.7939 -0.1893
8 3 3 -3.5727 0.1923
8 3 4 3.2959 -0.1633
8 3 5 -2.9609 0.1037
8 3 6 2.5704 -0.0208
8 3 7 -2.1361 -0.0730
8 3 8 1.6796 0.1611
8 3 9 -1.2297 -0.2269
8 4 -6 1.7778 0.0840
8 4 -5 -2.0942 -0.0912
8 4 -4 2.3716 0.0674
8 4 -3 -2.5880 -0.0124
8 4 -2 2.7303 -0.0659
8 4 -1 -2.7954 0.1543
8 4 0 2.7876 -0.2382
8 4 1 -2.7146 0.3042
8 4 2 2.5826 -0.3418
8 4 3 -2.3950 0.3441
8 4 4 2.1536 -0.3086
8 4 5 -1.8621 0.2378
8 4 6 1.5303 -0.1406
8 4 7 -1.1755 0.0314
8 5 -1 -1.4822 0.2544
9 1 -9 -1.5236 0.1255
9 1 -8 2.0340 -0.0530
9 1 -7 -2.5936 -0.0149
9 1 -6 3.1684 0.0654
9 1 -5 -3.7134 -0.0906
9 1 -4 4.1826 0.0905
9 1 -3 -4.5394 -0.0718
9 1 -2 4.7651 0.0446
9 1 -1 -4.8602 -0.0175
9 1 0 4.8404 -0.0049
9 1 1 -4.7270 0.0224
9 1 2 4.5388 -0.0373
9 1 3 -4.2865 0.0509
9 1 4 3.9732 -0.0621
9 1 5 -3.5988 0.0674
9 1 6 3.1664 -0.0631
9 1 7 -2.6878 0.0485
9 1 8 2.1843 -0.0262
9 1 9 -1.6849 0.0022
9 2 -8 1.5074 0.0283
9 2 -7 -1.9564 -0.1009
9 2 -6 2.4156 0.1569
9 2 -5 -2.8483 -0.1835
9 2 -4 3.2169 0.1755
9 2 -3 -3.4915 -0.1367
9 2 -2 3.6564 0.0772
9 2 -1 -3.7122 -0.0101
9 2 0 3.6717 -0.0526
9 2 1 -3.5526 0.1019
9 2 2 3.3703 -0.1319
9 2 3 -3.1342 0.1391
9 2 4 2.8477 -0.1217
9 2 5 -2.5131 0.0802
9 2 6 2.1361 -0.0190
9 2 7 -1.7306 -0.0532
9 2 8 1.3184 0.1244
9 3 -5 -1.7928 -0.1948
9 3 -4 2.0556 0.1751
9 3 -3 -2.2538 -0.1185
9 3 -2 2.3738 0.0349
9 3 -1 -2.4138 0.0604
9 3 1 -2.2858 0.2215
10 1 -7 -1.3943 -0.0335
10 1 -6 1.8120 0.0781
10 1 -5 -2.2179 -0.1003
10 1 -4 2.5736 0.0981
10 1 -3 -2.8471 -0.0764
10 1 -2 3.0197 0.0440
10 1 -1 -3.0880 -0.0094
10 1 0 3.0612 -0.0218
10 1 1 -2.9546 0.0478
10 1 2 2.7830 -0.0689
10 1 3 -2.5574 0.0855
10 1 4 2.2849 -0.0959
10 1 5 -1.9721 0.0973
10 1 6 1.6290 -0.0871
10 1 7 -1.2719 0.0650
10 2 -4 1.5792 0.1677
10 2 -3 -1.7564 -0.1253
10 2 -2 1.8611 0.0620
10 2 -1 -1.8914 0.0091
10 2 0 1.8540 -0.0750
10 2 2 1.6208 -0.1549
10 2 3 -1.4434 0.1586
10 2 4 1.2335 -0.1359
0 0 0 0.0 0.0
;
_shelx_fab_checksum                55154
_olex2_submission_special_instructions  'No special instructions were received'
_oxdiff_exptl_absorpt_empirical_details
;
Empirical correction (ABSPACK) includes:
- Absorption correction using spherical harmonics
- Frame scaling
- B-factor correction
;
_vrf_PLAT306_nh48ceso46
;
PROBLEM: Isolated Oxygen Atom (H-atoms Missing ?) ....... O2 Check
RESPONSE: Water molecules, H-atoms could not be located
;
# start Validation Reply Form
_vrf_PLAT975_nh48ceso46
;
PROBLEM: Check Calcd Resid. Dens. 0.49A From O2 3.94 eA-3
RESPONSE: High q-peaks are common near heavy atoms
;
