data_Pr-U6
_audit_creation_date               2022-12-02
_audit_creation_method
;
Olex2 1.3
(compiled 2020.11.12 svn.r5f609507 for OlexSys, GUI svn.r6408)
;
_shelx_SHELXL_version_number       '2018/3'
_audit_contact_author_address      ?
_audit_contact_author_email        ?
_audit_contact_author_name         ''
_audit_contact_author_phone        ?
_publ_contact_author_id_orcid      ?
_publ_section_references
;
Dolomanov, O.V., Bourhis, L.J., Gildea, R.J, Howard, J.A.K. & Puschmann, H.
 (2009), J. Appl. Cryst. 42, 339-341.

Sheldrick, G.M. (2015). Acta Cryst. C71, 3-8.
;
_chemical_name_common              ?
_chemical_name_systematic          ?
_chemical_formula_moiety           'O38 Pr2 S6 U3'
_chemical_formula_sum              'O38 Pr2 S6 U3'
_chemical_formula_weight           1796.27
_chemical_melting_point            ?
loop_
  _atom_type_symbol
  _atom_type_description
  _atom_type_scat_dispersion_real
  _atom_type_scat_dispersion_imag
  _atom_type_scat_source
 'O' 'O' 0.0492 0.0322 'International Tables Vol C Tables 4.2.6.8 and 6.1.1.4'
 'Pr' 'Pr' -2.4164 10.2820
 'International Tables Vol C Tables 4.2.6.8 and 6.1.1.4'
 'S' 'S' 0.3331 0.5567 'International Tables Vol C Tables 4.2.6.8 and 6.1.1.4'
 'U' 'U' -4.3638 13.4090 'International Tables Vol C Tables 4.2.6.8 and 6.1.1.4'

_shelx_space_group_comment
;
The symmetry employed for this shelxl refinement is uniquely defined
by the following loop, which should always be used as a source of
symmetry information in preference to the above space-group names.
They are only intended as comments.
;
_space_group_crystal_system        'orthorhombic'
_space_group_IT_number             58
_space_group_name_H-M_alt          'P n n m'
_space_group_name_Hall             '-P 2 2n'
loop_
  _space_group_symop_operation_xyz
 'x, y, z'
 '-x, -y, z'
 '-x+1/2, y+1/2, -z+1/2'
 'x+1/2, -y+1/2, -z+1/2'
 '-x, -y, -z'
 'x, y, -z'
 'x-1/2, -y-1/2, z-1/2'
 '-x-1/2, y-1/2, z-1/2'

_cell_length_a                     10.97400(10)
_cell_length_b                     17.5902(2)
_cell_length_c                     19.0094(2)
_cell_angle_alpha                  90
_cell_angle_beta                   90
_cell_angle_gamma                  90
_cell_volume                       3669.48(7)
_cell_formula_units_Z              4
_cell_measurement_reflns_used      9201
_cell_measurement_temperature      173.0
_cell_measurement_theta_max        66.725
_cell_measurement_theta_min        3.514
_shelx_estimated_absorpt_T_max     0.375
_shelx_estimated_absorpt_T_min     0.121
_exptl_absorpt_coefficient_mu      61.019
_exptl_absorpt_correction_T_max    0.164
_exptl_absorpt_correction_T_min    0.053
_exptl_absorpt_correction_type     multi-scan
_exptl_absorpt_process_details     ?
_exptl_absorpt_special_details     ?
_exptl_crystal_colour              'clear green'
_exptl_crystal_colour_lustre       clear
_exptl_crystal_colour_modifier     .
_exptl_crystal_colour_primary      green
_exptl_crystal_density_diffrn      3.251
_exptl_crystal_density_meas        ?
_exptl_crystal_density_method      ?
_exptl_crystal_description         needle
_exptl_crystal_F_000               3176
_exptl_crystal_size_max            0.06
_exptl_crystal_size_mid            0.04
_exptl_crystal_size_min            0.02
_exptl_transmission_factor_max     ?
_exptl_transmission_factor_min     ?
_diffrn_reflns_av_R_equivalents    0.0538
_diffrn_reflns_av_unetI/netI       0.0469
_diffrn_reflns_Laue_measured_fraction_full  0.999
_diffrn_reflns_Laue_measured_fraction_max  0.951
_diffrn_reflns_limit_h_max         10
_diffrn_reflns_limit_h_min         -13
_diffrn_reflns_limit_k_max         22
_diffrn_reflns_limit_k_min         -18
_diffrn_reflns_limit_l_max         22
_diffrn_reflns_limit_l_min         -23
_diffrn_reflns_number              14371
_diffrn_reflns_point_group_measured_fraction_full  0.999
_diffrn_reflns_point_group_measured_fraction_max  0.951
_diffrn_reflns_theta_full          67.684
_diffrn_reflns_theta_max           77.078
_diffrn_reflns_theta_min           3.423
_diffrn_ambient_temperature        173.0
_diffrn_detector_area_resol_mean   ?
_diffrn_measured_fraction_theta_full  0.999
_diffrn_measured_fraction_theta_max  0.951
_diffrn_measurement_device_type    'XtaLAB Synergy, Dualflex, HyPix'
_diffrn_measurement_method         ?
_diffrn_radiation_type             CuK\a
_diffrn_radiation_wavelength       1.54184
_diffrn_source                     ?
_reflns_Friedel_coverage           0.000
_reflns_Friedel_fraction_full      .
_reflns_Friedel_fraction_max       .
_reflns_number_gt                  3426
_reflns_number_total               3811
_reflns_special_details
;
 Reflections were merged by SHELXL according to the crystal
 class for the calculation of statistics and refinement.
 
 Structure factors included contributions from the .fab file.
 
 _reflns_Friedel_fraction is defined as the number of unique
 Friedel pairs measured divided by the number that would be
 possible theoretically, ignoring centric projections and
 systematic absences.
;
_reflns_threshold_expression       'I > 2\s(I)'
_computing_cell_refinement         ?
_computing_data_collection         ?
_computing_data_reduction          ?
_computing_molecular_graphics      'Olex2 1.3 (Dolomanov et al., 2009)'
_computing_publication_material    'Olex2 1.3 (Dolomanov et al., 2009)'
_computing_structure_refinement    'SHELXL 2018/3 (Sheldrick, 2015)'
_computing_structure_solution      'SHELXT 2018/2 (Sheldrick, 2018)'
_refine_diff_density_max           2.858
_refine_diff_density_min           -1.792
_refine_diff_density_rms           0.262
_refine_ls_extinction_coef         .
_refine_ls_extinction_method       none
_refine_ls_goodness_of_fit_ref     1.048
_refine_ls_hydrogen_treatment      undef
_refine_ls_matrix_type             full
_refine_ls_number_parameters       264
_refine_ls_number_reflns           3811
_refine_ls_number_restraints       0
_refine_ls_R_factor_all            0.0372
_refine_ls_R_factor_gt             0.0337
_refine_ls_restrained_S_all        1.048
_refine_ls_shift/su_max            0.001
_refine_ls_shift/su_mean           0.000
_refine_ls_structure_factor_coef   Fsqd
_refine_ls_weighting_details      
 'w=1/[\s^2^(Fo^2^)+(0.0468P)^2^+20.9694P] where P=(Fo^2^+2Fc^2^)/3'
_refine_ls_weighting_scheme        calc
_refine_ls_wR_factor_gt            0.0886
_refine_ls_wR_factor_ref           0.0909
_refine_special_details            ?
_olex2_refinement_description
;
1. Others
 Sof(O6)=1-FVAR(1)
 Sof(O4)=FVAR(1)
 Fixed Sof: O10(0.5) O12(0.5) O19(0.5) O5(0.5) O11(0.5) O3(0.5) O25(0.5)
 O13(0.5)
;
_atom_sites_solution_hydrogens     .
_atom_sites_solution_primary       dual
_atom_sites_solution_secondary     ?
loop_
  _atom_site_label
  _atom_site_type_symbol
  _atom_site_fract_x
  _atom_site_fract_y
  _atom_site_fract_z
  _atom_site_U_iso_or_equiv
  _atom_site_adp_type
  _atom_site_occupancy
  _atom_site_site_symmetry_order
  _atom_site_calc_flag
  _atom_site_refinement_flags_posn
  _atom_site_refinement_flags_adp
  _atom_site_refinement_flags_occupancy
  _atom_site_disorder_assembly
  _atom_site_disorder_group
 U1 U 0.54627(3) 0.34570(2) 0.500000 0.01882(11) Uani 1 2 d S T P . .
 U3 U 0.500000 0.500000 0.64525(2) 0.02022(11) Uani 1 2 d S T P A .
 U2 U 0.26277(3) 0.47056(2) 0.500000 0.02450(12) Uani 1 2 d S T P A .
 Pr1 Pr 0.92522(5) 0.34021(3) 0.25245(3) 0.02615(13) Uani 1 1 d . . . . .
 S1 S 0.61111(19) 0.31158(11) 0.31705(10) 0.0249(4) Uani 1 1 d . . . . .
 S4 S 0.2349(3) 0.26578(16) 0.500000 0.0275(6) Uani 1 2 d S T P . .
 S2 S 0.8254(2) 0.53447(12) 0.68420(14) 0.0335(5) Uani 1 1 d . . . . .
 S3 S 0.7554(3) 0.21694(19) 0.500000 0.0359(7) Uani 1 2 d S T P A .
 O1 O 0.5451(6) 0.3819(3) 0.2956(3) 0.0322(14) Uani 1 1 d . . . . .
 O4 O 0.3954(11) 0.4008(7) 0.5827(7) 0.017(3) Uiso 0.52(3) 1 d . . P A 1
 O6 O 0.4254(10) 0.4271(7) 0.5548(6) 0.014(4) Uani 0.48(3) 1 d . . P A 2
 O8 O 0.3695(8) 0.2653(5) 0.500000 0.034(2) Uani 1 2 d S T P A .
 O10 O 0.6619(15) 0.4310(9) 0.5738(9) 0.019(3) Uani 0.5 1 d . . P A .
 O12 O 0.3816(15) 0.5503(9) 0.5638(8) 0.018(3) Uani 0.5 1 d . . P . .
 O14 O 0.5656(6) 0.2864(3) 0.3863(3) 0.0324(14) Uani 1 1 d . . . . .
 O16 O 0.7417(6) 0.3268(4) 0.3216(4) 0.0340(15) Uani 1 1 d . . . . .
 O18 O 0.7581(9) 0.3034(6) 0.500000 0.036(2) Uani 1 2 d S T P A .
 O20 O 0.8495(7) 0.5414(5) 0.6092(4) 0.052(2) Uani 1 1 d . . . . .
 O22 O 0.6922(6) 0.5341(4) 0.6973(4) 0.0444(18) Uani 1 1 d . . . . .
 O24 O 0.5872(6) 0.2518(4) 0.2649(4) 0.0329(14) Uani 1 1 d . . . . .
 O26 O 0.1914(10) 0.3443(6) 0.500000 0.056(3) Uani 1 2 d S T P A .
 O27 O 0.8776(6) 0.6001(4) 0.7198(4) 0.0379(15) Uani 1 1 d . . . . .
 O7 O 0.1912(9) 0.2301(7) 0.4359(6) 0.085(4) Uani 1 1 d . . . . .
 O15 O 0.6246(11) 0.1978(7) 0.500000 0.051(3) Uani 1 2 d S T P A .
 O2 O 0.9724(8) 0.3048(7) 0.3737(5) 0.072(3) Uani 1 1 d . . . . .
 O17 O 1.0114(13) 0.3715(6) 0.1349(5) 0.088(4) Uani 1 1 d . . . . .
 O9 O 0.0952(11) 0.5684(6) 0.500000 0.066(4) Uani 1 2 d S T P . .
 O19 O 0.762(3) 0.3692(14) 0.1630(15) 0.054(6) Uani 0.5 1 d . . P B 2
 O5 O 0.818(2) 0.2372(13) 0.1888(12) 0.058(5) Uani 0.5 1 d . . P B 2
 O21 O 0.8165(10) 0.1900(6) 0.4365(5) 0.068(3) Uani 1 1 d . . . . .
 O11 O 0.8743(15) 0.4694(8) 0.2732(9) 0.039(3) Uiso 0.5 1 d . . P B 2
 O3 O 0.8329(17) 0.2134(10) 0.2244(13) 0.050(5) Uani 0.5 1 d . . P B 1
 O25 O 0.8839(13) 0.4610(8) 0.3056(8) 0.035(3) Uiso 0.5 1 d . . P B 1
 O13 O 0.751(3) 0.399(2) 0.1850(16) 0.074(9) Uani 0.5 1 d . . P B 1
 O23 O 0.500000 0.500000 0.2147(8) 0.070(4) Uiso 1 2 d S . P . .

loop_
  _atom_site_aniso_label
  _atom_site_aniso_U_11
  _atom_site_aniso_U_22
  _atom_site_aniso_U_33
  _atom_site_aniso_U_23
  _atom_site_aniso_U_13
  _atom_site_aniso_U_12
 U1 0.0179(2) 0.01352(18) 0.0250(2) 0.000 0.000 0.00015(12)
 U3 0.0177(2) 0.01598(19) 0.0270(2) 0.000 0.000 -0.00127(13)
 U2 0.01460(19) 0.01759(19) 0.0413(2) 0.000 0.000 -0.00172(13)
 Pr1 0.0200(2) 0.0266(2) 0.0319(3) -0.01012(18) -0.00214(19) -0.00043(17)
 S1 0.0251(10) 0.0212(9) 0.0285(9) -0.0096(8) 0.0000(8) -0.0006(8)
 S4 0.0253(15) 0.0204(13) 0.0368(15) 0.000 0.000 -0.0066(11)
 S2 0.0213(10) 0.0207(9) 0.0584(14) -0.0037(9) -0.0125(10) -0.0028(8)
 S3 0.0369(18) 0.0305(16) 0.0404(17) 0.000 0.000 0.0093(14)
 O1 0.037(4) 0.022(3) 0.038(3) -0.009(3) -0.012(3) 0.010(3)
 O6 0.015(6) 0.014(6) 0.015(6) -0.006(5) 0.007(5) 0.002(4)
 O8 0.025(5) 0.020(4) 0.058(6) 0.000 0.000 0.005(3)
 O10 0.031(9) 0.009(7) 0.017(6) 0.000(5) -0.001(6) 0.001(6)
 O12 0.031(10) 0.010(7) 0.014(7) 0.002(5) -0.007(7) -0.006(6)
 O14 0.037(4) 0.023(3) 0.038(3) -0.005(3) 0.001(3) -0.004(3)
 O16 0.019(3) 0.035(3) 0.048(4) -0.010(3) -0.001(3) 0.000(3)
 O18 0.027(5) 0.033(5) 0.047(5) 0.000 0.000 0.004(4)
 O20 0.035(4) 0.077(6) 0.043(4) -0.024(4) -0.008(3) -0.002(4)
 O22 0.021(3) 0.051(4) 0.061(5) -0.004(4) -0.011(3) -0.011(3)
 O24 0.032(3) 0.026(3) 0.041(3) -0.013(3) 0.008(3) -0.006(3)
 O26 0.035(6) 0.024(5) 0.109(10) 0.000 0.000 -0.002(4)
 O27 0.026(3) 0.034(3) 0.054(4) -0.013(3) -0.003(3) -0.013(3)
 O7 0.045(5) 0.110(9) 0.100(8) -0.074(7) -0.011(5) 0.010(5)
 O15 0.057(7) 0.051(6) 0.044(6) 0.000 0.000 -0.014(6)
 O2 0.045(5) 0.108(8) 0.062(5) 0.036(6) -0.001(4) 0.004(5)
 O17 0.158(12) 0.058(6) 0.048(5) 0.012(4) 0.029(6) 0.039(7)
 O9 0.042(7) 0.033(6) 0.122(12) 0.000 0.000 0.005(5)
 O19 0.043(13) 0.053(13) 0.067(17) -0.002(10) -0.031(12) -0.001(10)
 O5 0.042(11) 0.049(13) 0.082(15) -0.026(11) 0.019(11) -0.008(10)
 O21 0.070(6) 0.072(6) 0.062(5) -0.013(5) 0.008(5) 0.032(5)
 O3 0.022(8) 0.024(8) 0.106(17) 0.012(9) 0.008(10) -0.008(6)
 O13 0.046(12) 0.11(3) 0.065(17) 0.000(15) -0.005(12) 0.016(17)

_geom_special_details
;
 All esds (except the esd in the dihedral angle between two l.s. planes)
 are estimated using the full covariance matrix.  The cell esds are taken
 into account individually in the estimation of esds in distances, angles
 and torsion angles; correlations between esds in cell parameters are only
 used when they are defined by crystal symmetry.  An approximate (isotropic)
 treatment of cell esds is used for estimating esds involving l.s. planes.
;
loop_
  _geom_bond_atom_site_label_1
  _geom_bond_atom_site_label_2
  _geom_bond_distance
  _geom_bond_site_symmetry_2
  _geom_bond_publ_flag
 U1 U3 3.9049(4) . ?
 U1 U3 3.9049(4) 5_666 ?
 U1 U2 3.8520(5) 5_666 ?
 U1 U2 3.8082(5) . ?
 U1 S3 3.224(3) . ?
 U1 O4 2.481(12) 6_556 ?
 U1 O4 2.480(12) . ?
 U1 O6 2.212(10) . ?
 U1 O6 2.212(10) 6_556 ?
 U1 O8 2.400(9) . ?
 U1 O10 2.415(17) 6_556 ?
 U1 O10 2.415(17) . ?
 U1 O12 2.334(16) 2_665 ?
 U1 O12 2.334(16) 5_666 ?
 U1 O14 2.409(6) 6_556 ?
 U1 O14 2.409(6) . ?
 U1 O18 2.441(9) . ?
 U1 O15 2.741(12) . ?
 U3 U2 3.8301(4) . ?
 U3 U2 3.8301(4) 5_666 ?
 U3 O1 2.414(6) 6_556 ?
 U3 O1 2.414(6) 5_666 ?
 U3 O4 2.403(11) . ?
 U3 O4 2.403(11) 2_665 ?
 U3 O6 2.296(10) . ?
 U3 O6 2.296(10) 2_665 ?
 U3 O10 2.545(17) . ?
 U3 O10 2.545(17) 2_665 ?
 U3 O12 2.206(16) . ?
 U3 O12 2.206(16) 2_665 ?
 U3 O22 2.406(7) 2_665 ?
 U3 O22 2.406(7) . ?
 U3 O23 2.663(15) 5_666 ?
 U2 O4 2.470(12) 6_556 ?
 U2 O4 2.470(12) . ?
 U2 O6 2.203(11) 6_556 ?
 U2 O6 2.203(11) . ?
 U2 O10 2.377(17) 5_666 ?
 U2 O10 2.377(17) 2_665 ?
 U2 O12 2.266(16) . ?
 U2 O12 2.266(16) 6_556 ?
 U2 O20 2.424(7) 2_665 ?
 U2 O20 2.424(7) 5_666 ?
 U2 O26 2.356(10) . ?
 U2 O9 2.519(12) . ?
 Pr1 O16 2.416(7) . ?
 Pr1 O24 2.426(6) 4 ?
 Pr1 O27 2.463(6) 5_766 ?
 Pr1 O2 2.444(9) . ?
 Pr1 O17 2.489(9) . ?
 Pr1 O19 2.53(3) . ?
 Pr1 O5 2.48(2) . ?
 Pr1 O11 2.374(15) . ?
 Pr1 O3 2.507(18) . ?
 Pr1 O25 2.396(14) . ?
 Pr1 O13 2.52(3) . ?
 S1 O1 1.491(6) . ?
 S1 O14 1.476(7) . ?
 S1 O16 1.461(6) . ?
 S1 O24 1.469(6) . ?
 S4 O8 1.477(9) . ?
 S4 O26 1.461(10) . ?
 S4 O7 1.452(9) 6_556 ?
 S4 O7 1.452(9) . ?
 S2 O20 1.454(8) . ?
 S2 O22 1.483(7) . ?
 S2 O27 1.455(6) . ?
 S2 O11 1.501(15) 6_556 ?
 S2 O25 1.456(14) 6_556 ?
 S3 O18 1.522(10) . ?
 S3 O15 1.474(12) . ?
 S3 O21 1.459(9) 6_556 ?
 S3 O21 1.459(9) . ?
 O10 O12 0.610(14) 2_665 ?

loop_
  _geom_angle_atom_site_label_1
  _geom_angle_atom_site_label_2
  _geom_angle_atom_site_label_3
  _geom_angle
  _geom_angle_site_symmetry_1
  _geom_angle_site_symmetry_3
  _geom_angle_publ_flag
 U3 U1 U3 89.998(11) 5_666 . ?
 U2 U1 U3 59.172(6) 5_666 5_666 ?
 U2 U1 U3 59.531(6) . . ?
 U2 U1 U3 59.172(6) 5_666 . ?
 U2 U1 U3 59.530(6) . 5_666 ?
 U2 U1 U2 87.738(11) . 5_666 ?
 S3 U1 U3 125.51(3) . . ?
 S3 U1 U3 125.51(3) . 5_666 ?
 S3 U1 U2 101.67(7) . 5_666 ?
 S3 U1 U2 170.59(7) . . ?
 O4 U1 U3 95.2(3) 6_556 . ?
 O4 U1 U3 95.2(3) . 5_666 ?
 O4 U1 U3 36.2(3) . . ?
 O4 U1 U3 36.2(3) 6_556 5_666 ?
 O4 U1 U2 39.6(3) 6_556 . ?
 O4 U1 U2 92.0(3) 6_556 5_666 ?
 O4 U1 U2 39.6(3) . . ?
 O4 U1 U2 92.0(3) . 5_666 ?
 O4 U1 S3 138.5(3) . . ?
 O4 U1 S3 138.5(3) 6_556 . ?
 O4 U1 O4 78.7(5) . 6_556 ?
 O4 U1 O15 125.5(4) . . ?
 O4 U1 O15 125.5(4) 6_556 . ?
 O6 U1 U3 78.8(4) 6_556 . ?
 O6 U1 U3 30.6(3) . . ?
 O6 U1 U2 30.3(3) . . ?
 O6 U1 U2 30.3(3) 6_556 . ?
 O6 U1 S3 151.8(3) 6_556 . ?
 O6 U1 S3 151.8(3) . . ?
 O6 U1 O8 84.1(4) 6_556 . ?
 O6 U1 O8 84.1(4) . . ?
 O6 U1 O10 68.9(5) . . ?
 O6 U1 O10 100.7(5) 6_556 . ?
 O6 U1 O14 84.9(4) 6_556 . ?
 O6 U1 O14 139.0(3) . . ?
 O6 U1 O18 140.2(3) 6_556 . ?
 O6 U1 O18 140.2(3) . . ?
 O6 U1 O15 143.4(4) . . ?
 O6 U1 O15 143.4(4) 6_556 . ?
 O8 U1 U3 107.71(14) . 5_666 ?
 O8 U1 U3 107.71(14) . . ?
 O8 U1 U2 159.0(2) . 5_666 ?
 O8 U1 U2 71.3(2) . . ?
 O8 U1 S3 99.3(2) . . ?
 O8 U1 O4 72.0(3) . 6_556 ?
 O8 U1 O4 72.0(3) . . ?
 O8 U1 O10 142.3(4) . 6_556 ?
 O8 U1 O10 142.3(4) . . ?
 O8 U1 O14 79.40(17) . 6_556 ?
 O8 U1 O14 79.40(17) . . ?
 O8 U1 O18 126.2(3) . . ?
 O8 U1 O15 72.2(3) . . ?
 O10 U1 U3 92.7(4) . 5_666 ?
 O10 U1 U3 39.3(4) 6_556 5_666 ?
 O10 U1 U3 92.7(4) 6_556 . ?
 O10 U1 U3 39.3(4) . . ?
 O10 U1 U2 94.1(4) . . ?
 O10 U1 U2 36.2(4) . 5_666 ?
 O10 U1 U2 94.1(4) 6_556 . ?
 O10 U1 U2 36.2(4) 6_556 5_666 ?
 O10 U1 S3 93.6(4) 6_556 . ?
 O10 U1 S3 93.6(4) . . ?
 O10 U1 O4 118.5(5) 6_556 . ?
 O10 U1 O4 74.9(5) . . ?
 O10 U1 O4 118.5(5) . 6_556 ?
 O10 U1 O4 74.9(5) 6_556 6_556 ?
 O10 U1 O10 71.0(8) 6_556 . ?
 O10 U1 O18 71.9(4) 6_556 . ?
 O10 U1 O18 71.9(4) . . ?
 O10 U1 O15 115.2(4) . . ?
 O10 U1 O15 115.2(4) 6_556 . ?
 O12 U1 U3 29.7(4) 2_665 . ?
 O12 U1 U3 82.3(4) 5_666 . ?
 O12 U1 U3 82.3(4) 2_665 5_666 ?
 O12 U1 U3 29.7(4) 5_666 5_666 ?
 O12 U1 U2 32.6(4) 2_665 5_666 ?
 O12 U1 U2 32.6(4) 5_666 5_666 ?
 O12 U1 U2 79.9(4) 5_666 . ?
 O12 U1 U2 79.9(4) 2_665 . ?
 O12 U1 S3 108.0(4) 2_665 . ?
 O12 U1 S3 108.0(4) 5_666 . ?
 O12 U1 O4 104.5(5) 5_666 . ?
 O12 U1 O4 65.8(5) 5_666 6_556 ?
 O12 U1 O4 104.5(5) 2_665 6_556 ?
 O12 U1 O4 65.8(5) 2_665 . ?
 O12 U1 O8 137.4(4) 2_665 . ?
 O12 U1 O8 137.4(4) 5_666 . ?
 O12 U1 O10 68.7(3) 5_666 . ?
 O12 U1 O10 14.6(3) 5_666 6_556 ?
 O12 U1 O10 68.7(3) 2_665 6_556 ?
 O12 U1 O10 14.6(3) 2_665 . ?
 O12 U1 O12 62.6(8) 2_665 5_666 ?
 O12 U1 O14 140.9(4) 2_665 . ?
 O12 U1 O14 81.0(4) 2_665 6_556 ?
 O12 U1 O14 140.9(4) 5_666 6_556 ?
 O12 U1 O14 81.0(4) 5_666 . ?
 O12 U1 O18 85.2(4) 5_666 . ?
 O12 U1 O18 85.2(4) 2_665 . ?
 O12 U1 O15 129.6(4) 2_665 . ?
 O12 U1 O15 129.6(4) 5_666 . ?
 O14 U1 U3 71.21(15) 6_556 . ?
 O14 U1 U3 161.20(15) . . ?
 O14 U1 U3 161.20(15) 6_556 5_666 ?
 O14 U1 U3 71.21(15) . 5_666 ?
 O14 U1 U2 108.38(15) 6_556 5_666 ?
 O14 U1 U2 108.75(16) . . ?
 O14 U1 U2 108.75(16) 6_556 . ?
 O14 U1 U2 108.38(15) . 5_666 ?
 O14 U1 S3 68.50(16) 6_556 . ?
 O14 U1 S3 68.50(16) . . ?
 O14 U1 O4 70.0(3) 6_556 . ?
 O14 U1 O4 142.8(3) . . ?
 O14 U1 O4 142.8(3) 6_556 6_556 ?
 O14 U1 O4 70.0(3) . 6_556 ?
 O14 U1 O10 72.6(4) 6_556 . ?
 O14 U1 O10 138.1(5) 6_556 6_556 ?
 O14 U1 O10 72.6(4) . 6_556 ?
 O14 U1 O10 138.1(5) . . ?
 O14 U1 O14 127.6(3) 6_556 . ?
 O14 U1 O18 77.55(18) 6_556 . ?
 O14 U1 O18 77.55(18) . . ?
 O14 U1 O15 63.99(16) . . ?
 O14 U1 O15 63.99(16) 6_556 . ?
 O18 U1 U3 109.61(15) . 5_666 ?
 O18 U1 U3 109.61(15) . . ?
 O18 U1 U2 162.5(2) . . ?
 O18 U1 U2 74.8(2) . 5_666 ?
 O18 U1 S3 26.9(2) . . ?
 O18 U1 O4 139.0(2) . . ?
 O18 U1 O4 139.0(2) . 6_556 ?
 O18 U1 O15 54.0(3) . . ?
 O15 U1 U3 134.49(3) . 5_666 ?
 O15 U1 U3 134.49(3) . . ?
 O15 U1 U2 143.5(2) . . ?
 O15 U1 U2 128.8(2) . 5_666 ?
 O15 U1 S3 27.1(3) . . ?
 U1 U3 U1 90.001(11) 5_666 . ?
 U2 U3 U1 58.978(9) 5_666 5_666 ?
 U2 U3 U1 59.725(8) . 5_666 ?
 U2 U3 U1 58.979(8) . . ?
 U2 U3 U1 59.726(8) 5_666 . ?
 U2 U3 U2 87.741(11) 5_666 . ?
 O1 U3 U1 162.64(15) 5_666 . ?
 O1 U3 U1 162.64(15) 6_556 5_666 ?
 O1 U3 U1 72.82(16) 6_556 . ?
 O1 U3 U1 72.82(16) 5_666 5_666 ?
 O1 U3 U2 111.03(17) 5_666 5_666 ?
 O1 U3 U2 111.03(17) 6_556 . ?
 O1 U3 U2 108.25(15) 5_666 . ?
 O1 U3 U2 108.25(15) 6_556 5_666 ?
 O1 U3 O1 124.4(3) 5_666 6_556 ?
 O1 U3 O10 143.4(4) 5_666 . ?
 O1 U3 O10 143.4(4) 6_556 2_665 ?
 O1 U3 O10 72.3(4) 5_666 2_665 ?
 O1 U3 O10 72.3(4) 6_556 . ?
 O1 U3 O23 62.22(16) 6_556 5_666 ?
 O1 U3 O23 62.22(16) 5_666 5_666 ?
 O4 U3 U1 37.6(3) . . ?
 O4 U3 U1 95.3(3) . 5_666 ?
 O4 U3 U1 37.6(3) 2_665 5_666 ?
 O4 U3 U1 95.3(3) 2_665 . ?
 O4 U3 U2 38.8(3) 2_665 5_666 ?
 O4 U3 U2 93.8(4) . 5_666 ?
 O4 U3 U2 38.8(3) . . ?
 O4 U3 U2 93.8(4) 2_665 . ?
 O4 U3 O1 72.7(4) . 6_556 ?
 O4 U3 O1 139.3(3) . 5_666 ?
 O4 U3 O1 72.7(4) 2_665 5_666 ?
 O4 U3 O1 139.3(3) 2_665 6_556 ?
 O4 U3 O4 120.7(7) 2_665 . ?
 O4 U3 O10 73.9(5) 2_665 2_665 ?
 O4 U3 O10 75.5(5) 2_665 . ?
 O4 U3 O10 75.5(5) . 2_665 ?
 O4 U3 O10 73.9(5) . . ?
 O4 U3 O22 143.4(3) . . ?
 O4 U3 O22 143.4(3) 2_665 2_665 ?
 O4 U3 O22 66.6(4) 2_665 . ?
 O4 U3 O22 66.6(4) . 2_665 ?
 O4 U3 O23 119.6(4) . 5_666 ?
 O4 U3 O23 119.6(4) 2_665 5_666 ?
 O6 U3 U1 29.4(3) . . ?
 O6 U3 U1 79.2(3) 2_665 . ?
 O6 U3 U2 77.2(3) 2_665 . ?
 O6 U3 U2 30.9(3) . . ?
 O6 U3 O6 83.0(7) 2_665 . ?
 O6 U3 O10 67.5(5) 2_665 . ?
 O6 U3 O10 65.3(5) . . ?
 O6 U3 O22 139.5(3) . . ?
 O6 U3 O22 81.7(4) 2_665 . ?
 O6 U3 O23 138.5(4) . 5_666 ?
 O6 U3 O23 138.5(4) 2_665 5_666 ?
 O10 U3 U1 92.6(4) 2_665 . ?
 O10 U3 U1 36.9(4) . . ?
 O10 U3 U1 36.9(4) 2_665 5_666 ?
 O10 U3 U1 92.6(4) . 5_666 ?
 O10 U3 U2 91.4(4) 2_665 5_666 ?
 O10 U3 U2 37.3(4) 2_665 . ?
 O10 U3 U2 37.4(4) . 5_666 ?
 O10 U3 U2 91.4(4) . . ?
 O10 U3 O10 115.5(7) . 2_665 ?
 O10 U3 O23 122.3(4) 2_665 5_666 ?
 O10 U3 O23 122.3(4) . 5_666 ?
 O12 U3 U1 31.6(4) . 5_666 ?
 O12 U3 U1 31.6(4) 2_665 . ?
 O12 U3 U1 81.9(4) . . ?
 O12 U3 U1 81.9(4) 2_665 5_666 ?
 O12 U3 U2 31.6(4) . . ?
 O12 U3 U2 80.8(4) 2_665 . ?
 O12 U3 U2 80.8(4) . 5_666 ?
 O12 U3 U2 31.6(4) 2_665 5_666 ?
 O12 U3 O1 82.0(4) 2_665 6_556 ?
 O12 U3 O1 142.4(4) . 6_556 ?
 O12 U3 O1 82.0(4) . 5_666 ?
 O12 U3 O1 142.4(4) 2_665 5_666 ?
 O12 U3 O4 69.1(5) . 2_665 ?
 O12 U3 O4 70.3(5) . . ?
 O12 U3 O4 69.1(5) 2_665 . ?
 O12 U3 O4 70.3(5) 2_665 2_665 ?
 O12 U3 O6 57.4(5) . 2_665 ?
 O12 U3 O6 59.2(5) . . ?
 O12 U3 O6 57.4(5) 2_665 . ?
 O12 U3 O6 59.2(5) 2_665 2_665 ?
 O12 U3 O10 103.2(6) . . ?
 O12 U3 O10 12.3(5) . 2_665 ?
 O12 U3 O10 103.2(6) 2_665 2_665 ?
 O12 U3 O10 12.3(5) 2_665 . ?
 O12 U3 O12 90.9(8) . 2_665 ?
 O12 U3 O22 82.7(5) . 2_665 ?
 O12 U3 O22 134.8(5) 2_665 2_665 ?
 O12 U3 O22 82.7(5) 2_665 . ?
 O12 U3 O22 134.8(5) . . ?
 O12 U3 O23 134.6(4) . 5_666 ?
 O12 U3 O23 134.6(4) 2_665 5_666 ?
 O22 U3 U1 110.51(19) 2_665 5_666 ?
 O22 U3 U1 110.51(19) . . ?
 O22 U3 U1 103.38(19) 2_665 . ?
 O22 U3 U1 103.38(19) . 5_666 ?
 O22 U3 U2 70.5(2) 2_665 . ?
 O22 U3 U2 157.8(2) . . ?
 O22 U3 U2 70.6(2) . 5_666 ?
 O22 U3 U2 157.8(2) 2_665 5_666 ?
 O22 U3 O1 76.9(2) 2_665 6_556 ?
 O22 U3 O1 81.0(3) 2_665 5_666 ?
 O22 U3 O1 76.9(2) . 5_666 ?
 O22 U3 O1 81.0(3) . 6_556 ?
 O22 U3 O10 74.1(4) . . ?
 O22 U3 O10 135.5(4) 2_665 . ?
 O22 U3 O10 135.5(4) . 2_665 ?
 O22 U3 O10 74.1(4) 2_665 2_665 ?
 O22 U3 O22 131.4(4) 2_665 . ?
 O22 U3 O23 65.7(2) . 5_666 ?
 O22 U3 O23 65.7(2) 2_665 5_666 ?
 O23 U3 U1 135.000(5) 5_666 5_666 ?
 O23 U3 U1 134.999(5) 5_666 . ?
 O23 U3 U2 136.130(6) 5_666 5_666 ?
 O23 U3 U2 136.130(6) 5_666 . ?
 U1 U2 U1 92.261(11) . 5_666 ?
 U1 U2 U3 61.490(7) . 5_666 ?
 U1 U2 U3 61.491(7) . . ?
 U3 U2 U1 61.103(6) . 5_666 ?
 U3 U2 U1 61.102(6) 5_666 5_666 ?
 U3 U2 U3 92.259(11) 5_666 . ?
 O4 U2 U1 95.5(3) . 5_666 ?
 O4 U2 U1 95.5(3) 6_556 5_666 ?
 O4 U2 U1 39.8(3) 6_556 . ?
 O4 U2 U1 39.8(3) . . ?
 O4 U2 U3 37.6(3) 6_556 5_666 ?
 O4 U2 U3 97.2(3) 6_556 . ?
 O4 U2 U3 37.6(3) . . ?
 O4 U2 U3 97.2(3) . 5_666 ?
 O4 U2 O4 79.1(6) 6_556 . ?
 O4 U2 O9 140.4(3) . . ?
 O4 U2 O9 140.3(3) 6_556 . ?
 O6 U2 U1 30.5(3) 6_556 . ?
 O6 U2 U1 30.5(3) . . ?
 O6 U2 U3 80.6(4) 6_556 . ?
 O6 U2 U3 32.4(3) . . ?
 O6 U2 O6 56.4(6) 6_556 . ?
 O6 U2 O12 90.1(6) 6_556 . ?
 O6 U2 O12 59.7(5) . . ?
 O6 U2 O26 86.7(4) 6_556 . ?
 O6 U2 O26 86.7(4) . . ?
 O6 U2 O9 145.9(3) . . ?
 O6 U2 O9 145.9(3) 6_556 . ?
 O10 U2 U1 97.8(4) 2_665 . ?
 O10 U2 U1 36.8(4) 2_665 5_666 ?
 O10 U2 U1 97.8(4) 5_666 . ?
 O10 U2 U1 36.8(4) 5_666 5_666 ?
 O10 U2 U3 40.5(4) 5_666 5_666 ?
 O10 U2 U3 95.2(4) 2_665 5_666 ?
 O10 U2 U3 40.5(4) 2_665 . ?
 O10 U2 U3 95.2(4) 5_666 . ?
 O10 U2 O4 122.2(5) 2_665 6_556 ?
 O10 U2 O4 77.4(5) 2_665 . ?
 O10 U2 O4 77.4(5) 5_666 6_556 ?
 O10 U2 O4 122.2(5) 5_666 . ?
 O10 U2 O10 72.3(8) 2_665 5_666 ?
 O10 U2 O20 74.6(5) 2_665 2_665 ?
 O10 U2 O20 138.2(5) 5_666 2_665 ?
 O10 U2 O20 74.6(5) 5_666 5_666 ?
 O10 U2 O20 138.2(5) 2_665 5_666 ?
 O10 U2 O9 75.9(4) 5_666 . ?
 O10 U2 O9 75.9(4) 2_665 . ?
 O12 U2 U1 33.7(4) . 5_666 ?
 O12 U2 U1 83.5(4) 6_556 . ?
 O12 U2 U1 33.7(4) 6_556 5_666 ?
 O12 U2 U1 83.5(4) . . ?
 O12 U2 U3 30.6(4) 6_556 5_666 ?
 O12 U2 U3 30.6(4) . . ?
 O12 U2 U3 84.9(4) . 5_666 ?
 O12 U2 U3 84.9(4) 6_556 . ?
 O12 U2 O4 108.0(5) 6_556 . ?
 O12 U2 O4 68.1(5) . . ?
 O12 U2 O4 108.0(5) . 6_556 ?
 O12 U2 O4 68.1(5) 6_556 6_556 ?
 O12 U2 O10 14.9(4) . 2_665 ?
 O12 U2 O10 70.4(3) 6_556 2_665 ?
 O12 U2 O10 14.9(4) 6_556 5_666 ?
 O12 U2 O10 70.4(3) . 5_666 ?
 O12 U2 O12 64.7(8) . 6_556 ?
 O12 U2 O20 83.6(5) . 2_665 ?
 O12 U2 O20 143.6(5) 6_556 2_665 ?
 O12 U2 O20 143.6(5) . 5_666 ?
 O12 U2 O20 83.6(5) 6_556 5_666 ?
 O12 U2 O26 140.8(4) 6_556 . ?
 O12 U2 O26 140.8(4) . . ?
 O12 U2 O9 89.8(5) . . ?
 O12 U2 O9 89.8(5) 6_556 . ?
 O20 U2 U1 111.4(2) 5_666 . ?
 O20 U2 U1 111.4(2) 2_665 . ?
 O20 U2 U1 110.5(2) 2_665 5_666 ?
 O20 U2 U1 110.5(2) 5_666 5_666 ?
 O20 U2 U3 167.1(2) 5_666 . ?
 O20 U2 U3 74.9(2) 2_665 . ?
 O20 U2 U3 74.9(2) 5_666 5_666 ?
 O20 U2 U3 167.1(2) 2_665 5_666 ?
 O20 U2 O4 73.2(4) 2_665 . ?
 O20 U2 O4 143.3(3) 2_665 6_556 ?
 O20 U2 O4 73.2(4) 5_666 6_556 ?
 O20 U2 O4 143.3(3) 5_666 . ?
 O20 U2 O20 117.9(4) 5_666 2_665 ?
 O20 U2 O9 71.8(2) 2_665 . ?
 O20 U2 O9 71.8(2) 5_666 . ?
 O26 U2 U1 166.5(3) . 5_666 ?
 O26 U2 U1 74.2(3) . . ?
 O26 U2 U3 110.71(18) . 5_666 ?
 O26 U2 U3 110.71(18) . . ?
 O26 U2 O4 74.2(4) . 6_556 ?
 O26 U2 O4 74.2(4) . . ?
 O26 U2 O10 143.4(4) . 2_665 ?
 O26 U2 O10 143.4(4) . 5_666 ?
 O26 U2 O20 75.4(3) . 5_666 ?
 O26 U2 O20 75.4(3) . 2_665 ?
 O26 U2 O9 113.7(4) . . ?
 O9 U2 U1 172.1(3) . . ?
 O9 U2 U1 79.8(3) . 5_666 ?
 O9 U2 U3 113.81(17) . . ?
 O9 U2 U3 113.81(17) . 5_666 ?
 O16 Pr1 O24 128.3(2) . 4 ?
 O16 Pr1 O27 131.1(2) . 5_766 ?
 O16 Pr1 O2 68.8(3) . . ?
 O16 Pr1 O17 145.8(4) . . ?
 O16 Pr1 O19 78.1(7) . . ?
 O16 Pr1 O5 78.3(5) . . ?
 O16 Pr1 O3 72.1(5) . . ?
 O16 Pr1 O13 71.7(8) . . ?
 O24 Pr1 O27 70.7(2) 4 5_766 ?
 O24 Pr1 O2 78.7(3) 4 . ?
 O24 Pr1 O17 75.3(3) 4 . ?
 O24 Pr1 O19 124.3(6) 4 . ?
 O24 Pr1 O5 78.2(5) 4 . ?
 O24 Pr1 O3 71.0(5) 4 . ?
 O24 Pr1 O13 139.4(7) 4 . ?
 O27 Pr1 O17 76.4(4) 5_766 . ?
 O27 Pr1 O19 133.1(7) 5_766 . ?
 O27 Pr1 O5 146.6(5) 5_766 . ?
 O27 Pr1 O3 141.3(5) 5_766 . ?
 O27 Pr1 O13 126.8(9) 5_766 . ?
 O2 Pr1 O27 73.8(3) . 5_766 ?
 O2 Pr1 O17 145.4(4) . . ?
 O2 Pr1 O19 146.9(8) . . ?
 O2 Pr1 O5 112.0(7) . . ?
 O2 Pr1 O3 93.4(6) . . ?
 O2 Pr1 O13 138.1(7) . . ?
 O17 Pr1 O19 67.7(8) . . ?
 O17 Pr1 O3 99.1(6) . . ?
 O17 Pr1 O13 74.9(8) . . ?
 O5 Pr1 O17 84.5(6) . . ?
 O5 Pr1 O19 58.7(8) . . ?
 O11 Pr1 O16 78.9(4) . . ?
 O11 Pr1 O2 97.9(5) . . ?
 O11 Pr1 O17 91.5(5) . . ?
 O11 Pr1 O19 75.6(7) . . ?
 O11 Pr1 O5 132.0(7) . . ?
 O3 Pr1 O13 87.2(9) . . ?
 O25 Pr1 O16 72.5(4) . . ?
 O25 Pr1 O24 142.0(4) . 4 ?
 O25 Pr1 O27 72.4(4) . 5_766 ?
 O25 Pr1 O2 82.4(5) . . ?
 O25 Pr1 O17 104.7(4) . . ?
 O25 Pr1 O3 143.3(6) . . ?
 O25 Pr1 O13 72.9(8) . . ?
 O14 S1 O1 109.2(4) . . ?
 O16 S1 O1 109.9(4) . . ?
 O16 S1 O14 109.5(4) . . ?
 O16 S1 O24 110.3(4) . . ?
 O24 S1 O1 108.8(4) . . ?
 O24 S1 O14 109.0(4) . . ?
 O26 S4 O8 109.4(6) . . ?
 O7 S4 O8 109.2(4) 6_556 . ?
 O7 S4 O8 109.2(4) . . ?
 O7 S4 O26 107.5(6) . . ?
 O7 S4 O26 107.4(6) 6_556 . ?
 O7 S4 O7 114.1(11) . 6_556 ?
 O20 S2 O22 110.2(5) . . ?
 O20 S2 O27 108.5(5) . . ?
 O20 S2 O11 121.9(8) . 6_556 ?
 O20 S2 O25 97.2(7) . 6_556 ?
 O22 S2 O11 105.0(7) . 6_556 ?
 O27 S2 O22 108.2(4) . . ?
 O27 S2 O11 102.3(7) . 6_556 ?
 O27 S2 O25 117.9(7) . 6_556 ?
 O25 S2 O22 114.1(7) 6_556 . ?
 O25 S2 O11 25.0(6) 6_556 6_556 ?
 O18 S3 U1 46.5(4) . . ?
 O15 S3 U1 57.9(5) . . ?
 O15 S3 O18 104.4(6) . . ?
 O21 S3 U1 123.7(4) 6_556 . ?
 O21 S3 U1 123.7(4) . . ?
 O21 S3 O18 108.4(5) . . ?
 O21 S3 O18 108.4(5) 6_556 . ?
 O21 S3 O15 111.9(5) 6_556 . ?
 O21 S3 O15 111.9(5) . . ?
 O21 S3 O21 111.6(8) 6_556 . ?
 S1 O1 U3 133.3(4) . 5_666 ?
 U3 O4 U1 106.2(5) . . ?
 U3 O4 U2 103.6(5) . . ?
 U2 O4 U1 100.6(5) . . ?
 U1 O6 U3 120.0(5) . . ?
 U2 O6 U1 119.2(5) . . ?
 U2 O6 U3 116.7(4) . . ?
 S4 O8 U1 143.6(5) . . ?
 U1 O10 U3 103.9(6) . . ?
 U2 O10 U1 107.0(6) 5_666 . ?
 U2 O10 U3 102.1(5) 5_666 . ?
 O12 O10 U1 75(3) 2_665 . ?
 O12 O10 U3 50(3) 2_665 . ?
 O12 O10 U2 72(3) 2_665 5_666 ?
 U3 O12 U1 118.6(7) . 5_666 ?
 U3 O12 U2 117.8(7) . . ?
 U2 O12 U1 113.7(7) . 5_666 ?
 O10 O12 U1 90(3) 2_665 5_666 ?
 O10 O12 U3 117(3) 2_665 . ?
 O10 O12 U2 93(3) 2_665 . ?
 S1 O14 U1 134.4(4) . . ?
 S1 O16 Pr1 143.5(4) . . ?
 S3 O18 U1 106.6(5) . . ?
 S2 O20 U2 137.7(5) . 5_666 ?
 S2 O22 U3 142.7(5) . . ?
 S1 O24 Pr1 134.5(4) . 4_455 ?
 S4 O26 U2 141.5(7) . . ?
 S2 O27 Pr1 141.6(4) . 5_766 ?
 S3 O15 U1 95.1(5) . . ?
 S2 O11 Pr1 154.6(10) 6_556 . ?
 S2 O25 Pr1 158.0(10) 6_556 . ?

loop_
  _geom_torsion_atom_site_label_1
  _geom_torsion_atom_site_label_2
  _geom_torsion_atom_site_label_3
  _geom_torsion_atom_site_label_4
  _geom_torsion
  _geom_torsion_site_symmetry_1
  _geom_torsion_site_symmetry_2
  _geom_torsion_site_symmetry_3
  _geom_torsion_site_symmetry_4
  _geom_torsion_publ_flag
 O1 S1 O14 U1 -55.1(6) . . . . ?
 O1 S1 O16 Pr1 -79.9(7) . . . . ?
 O1 S1 O24 Pr1 -84.4(6) . . . 4_455 ?
 O8 S4 O26 U2 0.0 . . . . ?
 O14 S1 O1 U3 48.8(6) . . . 5_666 ?
 O14 S1 O16 Pr1 160.2(6) . . . . ?
 O14 S1 O24 Pr1 34.6(7) . . . 4_455 ?
 O16 S1 O1 U3 -71.4(6) . . . 5_666 ?
 O16 S1 O14 U1 65.3(6) . . . . ?
 O16 S1 O24 Pr1 155.0(5) . . . 4_455 ?
 O18 S3 O15 U1 0.0 . . . . ?
 O20 S2 O22 U3 29.1(9) . . . . ?
 O20 S2 O27 Pr1 -66.5(8) . . . 5_766 ?
 O22 S2 O20 U2 -14.4(9) . . . 5_666 ?
 O22 S2 O27 Pr1 173.9(6) . . . 5_766 ?
 O24 S1 O1 U3 167.7(5) . . . 5_666 ?
 O24 S1 O14 U1 -173.9(5) . . . . ?
 O24 S1 O16 Pr1 40.1(8) . . . . ?
 O26 S4 O8 U1 0.0 . . . . ?
 O27 S2 O20 U2 -132.7(7) . . . 5_666 ?
 O27 S2 O22 U3 147.5(7) . . . . ?
 O7 S4 O8 U1 -117.3(6) 6_556 . . . ?
 O7 S4 O8 U1 117.3(6) . . . . ?
 O7 S4 O26 U2 118.4(5) 6_556 . . . ?
 O7 S4 O26 U2 -118.4(5) . . . . ?
 O15 S3 O18 U1 0.0 . . . . ?
 O21 S3 O18 U1 -119.4(5) 6_556 . . . ?
 O21 S3 O18 U1 119.4(5) . . . . ?
 O21 S3 O15 U1 117.0(5) 6_556 . . . ?
 O21 S3 O15 U1 -117.0(5) . . . . ?
 O11 S2 O20 U2 109.1(10) 6_556 . . 5_666 ?
 O11 S2 O22 U3 -103.8(10) 6_556 . . . ?
 O11 S2 O27 Pr1 63.5(10) 6_556 . . 5_766 ?
 O25 S2 O20 U2 104.6(9) 6_556 . . 5_666 ?
 O25 S2 O22 U3 -79.0(10) 6_556 . . . ?
 O25 S2 O27 Pr1 42.6(11) 6_556 . . 5_766 ?

_smtbx_masks_special_details       ?
loop_
  _smtbx_masks_void_nr
  _smtbx_masks_void_average_x
  _smtbx_masks_void_average_y
  _smtbx_masks_void_average_z
  _smtbx_masks_void_volume
  _smtbx_masks_void_count_electrons
  _smtbx_masks_void_content
 1 -0.558 0.000 0.500 311.3 89.5 ?
 2 -0.537 0.500 0.000 311.3 89.5 ?

_smtbx_masks_void_probe_radius     1.2
_smtbx_masks_void_truncation_radius  1.2
_shelx_res_file
;
TITL u6-pr_a.res in Pnnm
    u6-pr.res
    created by SHELXL-2018/3 at 16:06:26 on 25-Aug-2021
REM Old TITL U6-Pr in Pnnm #58
REM SHELXT solution in Pnnm: R1 0.103, Rweak 0.003, Alpha 0.026
REM <I/s> 0.596 for 336 systematic absences, Orientation as input
REM Formula found by SHELXT: O36 S6 U2 Pr2
CELL 1.54184 10.974 17.5902 19.0094 90 90 90
ZERR 4 0.0001 0.0002 0.0002 0 0 0
LATT 1
SYMM -X,-Y,+Z
SYMM 0.5-X,0.5+Y,0.5-Z
SYMM 0.5+X,0.5-Y,0.5-Z
SFAC O Pr S U
UNIT 152 8 24 12

L.S. 40
PLAN  31
SIZE 0.06 0.04 0.02
TEMP -100.15
CONF
CONN 24 U2
CONN 24 U3
CONN 24 U1
list 4
MORE -1
ABIN
fmap 2
acta
REM <olex2.extras>
REM <HklSrc "%./U6-Pr.hkl">
REM </olex2.extras>

WGHT    0.046800   20.969400
FVAR       0.10011   0.51861
U1    4    0.546269    0.345700    0.500000    10.50000    0.01791    0.01352 =
         0.02502    0.00000    0.00000    0.00015
U3    4    0.500000    0.500000    0.645252    10.50000    0.01770    0.01598 =
         0.02698    0.00000    0.00000   -0.00127
U2    4    0.262770    0.470557    0.500000    10.50000    0.01460    0.01759 =
         0.04131    0.00000    0.00000   -0.00172
PR1   2    0.925218    0.340210    0.252451    11.00000    0.01996    0.02659 =
         0.03191   -0.01012   -0.00214   -0.00043
S1    3    0.611106    0.311577    0.317050    11.00000    0.02515    0.02120 =
         0.02850   -0.00960   -0.00002   -0.00058
S4    3    0.234935    0.265782    0.500000    10.50000    0.02532    0.02043 =
         0.03677    0.00000    0.00000   -0.00661
S2    3    0.825388    0.534475    0.684199    11.00000    0.02134    0.02067 =
         0.05837   -0.00368   -0.01254   -0.00278
S3    3    0.755361    0.216939    0.500000    10.50000    0.03692    0.03045 =
         0.04038    0.00000    0.00000    0.00932
O1    1    0.545062    0.381885    0.295559    11.00000    0.03669    0.02188 =
         0.03804   -0.00854   -0.01173    0.00954
PART 1
O4    1    0.395410    0.400772    0.582735    21.00000    0.01716
PART 2
O6    1    0.425370    0.427104    0.554771   -21.00000    0.01507    0.01363 =
         0.01477   -0.00621    0.00661    0.00193
PART 0
O8    1    0.369488    0.265334    0.500000    10.50000    0.02472    0.01990 =
         0.05847    0.00000    0.00000    0.00466
O10   1    0.661920    0.431000    0.573794    10.50000    0.03075    0.00856 =
         0.01701    0.00029   -0.00070    0.00083
O12   1    0.381569    0.550259    0.563818    10.50000    0.03077    0.01048 =
         0.01370    0.00158   -0.00742   -0.00618
O14   1    0.565558    0.286421    0.386288    11.00000    0.03659    0.02276 =
         0.03774   -0.00511    0.00083   -0.00401
O16   1    0.741702    0.326837    0.321603    11.00000    0.01871    0.03477 =
         0.04840   -0.00992   -0.00094   -0.00050
O18   1    0.758091    0.303419    0.500000    10.50000    0.02731    0.03340 =
         0.04651    0.00000    0.00000    0.00410
O20   1    0.849512    0.541441    0.609240    11.00000    0.03529    0.07683 =
         0.04326   -0.02374   -0.00795   -0.00246
O22   1    0.692196    0.534130    0.697327    11.00000    0.02059    0.05149 =
         0.06120   -0.00418   -0.01117   -0.01068
O24   1    0.587173    0.251764    0.264936    11.00000    0.03220    0.02591 =
         0.04054   -0.01303    0.00802   -0.00551
O26   1    0.191365    0.344269    0.500000    10.50000    0.03458    0.02369 =
         0.10858    0.00000    0.00000   -0.00239
O27   1    0.877578    0.600079    0.719807    11.00000    0.02624    0.03359 =
         0.05394   -0.01321   -0.00338   -0.01283
O7    1    0.191189    0.230134    0.435903    11.00000    0.04503    0.10952 =
         0.09996   -0.07367   -0.01117    0.00957
O15   1    0.624605    0.197762    0.500000    10.50000    0.05660    0.05084 =
         0.04431    0.00000    0.00000   -0.01403
O2    1    0.972410    0.304808    0.373738    11.00000    0.04466    0.10827 =
         0.06175    0.03565   -0.00125    0.00378
O17   1    1.011373    0.371531    0.134860    11.00000    0.15791    0.05818 =
         0.04781    0.01247    0.02941    0.03930
O9    1    0.095188    0.568442    0.500000    10.50000    0.04233    0.03253 =
         0.12191    0.00000    0.00000    0.00475
PART 2
O19   1    0.761547    0.369250    0.162977    10.50000    0.04284    0.05300 =
         0.06663   -0.00241   -0.03068   -0.00121
O5    1    0.817616    0.237175    0.188795    10.50000    0.04153    0.04944 =
         0.08185   -0.02647    0.01897   -0.00804
PART 0
O21   1    0.816469    0.190033    0.436522    11.00000    0.07047    0.07184 =
         0.06241   -0.01252    0.00785    0.03239
PART 2
O11   1    0.874302    0.469432    0.273175    10.50000    0.03917
PART 1
O3    1    0.832934    0.213429    0.224351    10.50000    0.02191    0.02356 =
         0.10582    0.01202    0.00778   -0.00833
O25   1    0.883853    0.460975    0.305595    10.50000    0.03475
O13   1    0.751336    0.399161    0.185035    10.50000    0.04621    0.11115 =
         0.06510   -0.00029   -0.00532    0.01581

PART 0
O23   1    0.500000    0.500000    0.214654    10.50000    0.06962
HKLF 4




REM  u6-pr_a.res in Pnnm
REM wR2 = 0.0909, GooF = S = 1.048, Restrained GooF = 1.048 for all data
REM R1 = 0.0337 for 3426 Fo > 4sig(Fo) and 0.0372 for all 3811 data
REM 264 parameters refined using 0 restraints

END

WGHT      0.0469     20.9744

REM Highest difference peak  2.858,  deepest hole -1.792,  1-sigma level  0.262
Q1    1   0.8981  0.2018  0.3095  11.00000  0.05    2.86
Q2    1   0.9412  0.3237  0.2994  11.00000  0.05    2.16
Q3    1   0.5125  0.4680  0.5970  11.00000  0.05    1.62
Q4    1   0.5491  0.3158  0.5485  11.00000  0.05    1.42
Q5    1   0.2721  0.4390  0.5572  11.00000  0.05    1.31
Q6    1   0.2598  0.5049  0.4608  11.00000  0.05    1.17
Q7    1   0.4470  0.5113  0.2132  11.00000  0.05    1.16
Q8    1   0.9284  0.3740  0.2256  11.00000  0.05    1.07
Q9    1   0.5421  0.3761  0.5457  11.00000  0.05    1.06
Q10   1   0.4988  0.4708  0.6859  11.00000  0.05    1.02
Q11   1   0.3940  0.5080  0.5821  11.00000  0.05    1.01
Q12   1   0.9328  0.3101  0.1986  11.00000  0.05    0.93
Q13   1   0.7361  0.5005  0.6686  11.00000  0.05    0.91
Q14   1   0.8530  0.3427  0.5000  10.50000  0.05    0.89
Q15   1   0.3797  0.4334  0.5000  10.50000  0.05    0.88
Q16   1   0.6534  0.3049  0.5000  10.50000  0.05    0.86
Q17   1   0.9902  0.3268  0.3938  11.00000  0.05    0.83
Q18   1   1.0075  0.2963  0.3816  11.00000  0.05    0.80
Q19   1   0.9681  0.4027  0.1772  11.00000  0.05    0.79
Q20   1   0.9356  0.3139  0.4169  11.00000  0.05    0.78
Q21   1   0.8329  0.5310  0.5723  11.00000  0.05    0.77
Q22   1   0.5058  0.3679  0.3190  11.00000  0.05    0.77
Q23   1   1.0593  0.2746  0.3845  11.00000  0.05    0.76
Q24   1   0.0528  0.3321  0.5000  10.50000  0.05    0.75
Q25   1   0.3187  0.3964  0.5774  11.00000  0.05    0.75
Q26   1   0.5284  0.3241  0.3584  11.00000  0.05    0.74
Q27   1   0.6766  0.3536  0.5000  10.50000  0.05    0.73
Q28   1   0.7798  0.2061  0.2253  11.00000  0.05    0.72
Q29   1   0.1861  0.5953  0.5000  10.50000  0.05    0.71
Q30   1   0.7044  0.3460  0.2803  11.00000  0.05    0.71
Q31   1  -0.0629  0.5571  0.5000  10.50000  0.05    0.71
;
_shelx_res_checksum                31073
_shelx_hkl_file
;
   0   0   1    0.17    0.48
   0   0   2   31.23    2.88
   0   0   3    0.76    1.43
   0   0   4 7120.70  406.75
   0   0   5   -1.82    2.21
   0   0   6 4102.49  237.02
   0   0   7   -0.72    2.69
   0   0   8 6946.72  396.38
   0   0   9    2.59    1.73
   0   0  10  451.58   28.36
   0   0  11    4.11    2.53
   0   0  12 4568.78  269.00
   0   0  12 4869.81  272.66
   0   0  13    7.24    4.40
   0   0  13    3.74    2.65
   0   0  14 1166.04   71.94
   0   0  14 1201.82   74.40
   0   0  15    2.11    4.18
   0   0  15    3.17    3.29
   0   0  16 3388.96  192.36
   0   0  16 3149.19  190.50
   0   0  17    1.00    4.78
   0   0  17    0.88    4.35
   0   0  18   23.78    5.75
   0   0  18   27.45    6.32
   0   0  19   -0.87    4.20
   0   0  19    5.85    3.85
   0   0  20 1661.18  102.44
   0   0  20 1777.08  103.00
   0   0  21   12.07    3.58
   0   0  22  239.77   16.97
   0   1   0    1.45    4.10
   0   1   1 7438.95  421.13
   0   1  -1 7342.19  421.33
   0   1   2    0.28    1.42
   0   1   3   10.29    2.80
   0  -1   4    0.41    2.16
   0  -1   5 3743.13  216.03
   0  -1   6    0.61    2.68
   0  -1   7 2230.97  131.77
   0  -1   8   -0.87    2.79
   0   1   8    3.39    1.63
   0  -1   8    5.16    1.93
   0  -1   9 1074.12   71.63
   0   1   9 1153.68   67.34
   0  -1   9 1165.59   67.69
   0   1  10    2.57    1.84
   0  -1  10    2.51    2.13
   0   1  11  558.47   34.07
   0  -1  11  530.78   34.30
   0  -1  12   -0.90    3.92
   0  -1  12    6.21    3.09
   0   1  12    5.64    2.73
   0  -1  13 1537.73   90.79
   0   1  13 1494.98   88.20
   0  -1  13 1424.18   88.29
   0  -1  14    2.18    3.59
   0  -1  14    3.84    3.80
   0   1  14    3.42    3.32
   0  -1  15  898.51   57.84
   0  -1  15  943.86   59.30
   0   1  15  931.49   57.80
   0  -1  16   11.08    4.60
   0   1  16    5.06    4.43
   0  -1  16    2.91    4.71
   0   1  17  105.64   11.60
   0  -1  17  112.02   11.89
   0  -1  17  120.16   12.35
   0  -1  18    1.80    4.65
   0  -1  18    2.55    4.51
   0   1  18   -1.81    4.53
   0  -1  19  190.81   15.50
   0   1  19  174.42   15.09
   0  -1  19  155.27   14.31
   0  -1  20   10.77    3.58
   0  -1  20    6.64    4.01
   0   1  20   11.71    3.82
   0   1  21  624.07   40.26
   0  -1  21  640.34   40.06
   0   1  22   -1.52    2.76
   0  -1  22    2.41    2.60
   0   2   0  466.82   35.48
   0   2  -1   -0.86    5.38
   0   2  -2  187.12   14.02
   0   2   2  195.05   13.49
   0   2   3    0.96    2.45
   0   2  -3    0.82    2.03
   0   2   4 1525.77   82.43
   0   2  -4 1333.80   79.03
   0   2   5    0.71    2.81
   0  -2   6 1589.07   95.29
   0  -2   7   -1.63    3.15
   0   2   8   18.82    2.91
   0  -2   8   28.74    5.68
   0  -2   9    2.40    2.38
   0   2   9    1.24    1.82
   0  -2   9    2.09    3.06
   0  -2  10    3.20    2.90
   0  -2  10    9.37    4.53
   0   2  10    5.43    2.30
   0   2  11   -0.42    2.30
   0  -2  11   -0.52    2.72
   0   2  12  114.63   13.46
   0  -2  12  110.28   10.20
   0  -2  12  112.11   11.39
   0   2  12  115.40    9.66
   0   2  13    1.72    2.82
   0   2  13    2.15    3.30
   0  -2  13    3.97    3.31
   0  -2  13   -0.85    3.85
   0   2  14  970.34   60.29
   0   2  14 1079.40   65.04
   0  -2  14  916.32   60.55
   0  -2  14 1023.34   62.18
   0   2  15    3.01    3.88
   0  -2  15   -0.80    4.04
   0  -2  15    1.81    3.83
   0   2  15    2.46    5.76
   0  -2  16  224.21   18.55
   0   2  16  241.57   18.85
   0  -2  16  234.22   19.20
   0   2  16  261.13   21.51
   0  -2  17   -5.92    4.42
   0   2  17   -0.90    4.21
   0   2  17    4.51    5.64
   0  -2  17    2.68    4.03
   0   2  18   21.84    6.94
   0  -2  18   28.79    6.09
   0   2  18   21.23    5.62
   0  -2  18   19.76    5.47
   0  -2  19    4.57    3.87
   0   2  19    0.89    4.08
   0   2  19    1.86    5.00
   0  -2  19   -2.39    3.87
   0  -2  20   42.53    6.96
   0  -2  20   59.98    7.27
   0   2  20   46.93    7.19
   0  -2  21    1.74    3.25
   0   2  21   -0.66    3.40
   0  -2  22   31.46    4.45
   0   3   0    0.34    2.02
   0   3  -1  268.78   21.87
   0   3  -1  206.38   15.10
   0   3  -2    4.54    5.39
   0   3  -3  747.23   47.15
   0   3   3  755.13   46.88
   0   3   4    0.71    2.87
   0   3  -4    6.81    3.24
   0   3   5  287.14   21.41
   0   3   6   -1.91    4.13
   0  -3   7  500.04   34.48
   0  -3   8   -1.02    3.48
   0   3   8    0.28    1.72
   0   3   9  624.85   36.83
   0  -3   9  556.18   41.16
   0  -3  10   -0.49    2.69
   0   3  10    2.55    2.11
   0  -3  10    4.74    3.31
   0  -3  11  404.80   31.94
   0  -3  11  438.58   28.17
   0   3  11  424.91   27.13
   0  -3  12    1.21    2.84
   0   3  12   -0.49    2.51
   0  -3  12    0.75    3.40
   0   3  12    1.19    4.92
   0   3  13   65.39    7.96
   0  -3  13   53.42    7.03
   0   3  13   58.59    6.67
   0  -3  13   52.83    7.61
   0   3  13   60.29   10.04
   0  -3  14   -0.82    3.33
   0   3  14   -0.82    3.77
   0   3  14    3.87    5.36
   0   3  14   -1.30    3.26
   0  -3  14    2.91    3.96
   0  -3  15   66.80    9.18
   0   3  15   83.11   10.20
   0  -3  15   94.23    9.70
   0   3  15   76.17   11.77
   0   3  15  109.19    9.73
   0  -3  16    0.81    4.19
   0   3  16   -2.50    4.42
   0   3  16  -10.02    6.46
   0  -3  16   -3.42    4.28
   0   3  17  567.94   38.91
   0  -3  17  551.90   36.59
   0  -3  17  544.75   36.22
   0   3  17  508.11   36.36
   0   3  18    7.56    5.06
   0  -3  18    3.96    3.78
   0  -3  18    3.27    3.39
   0   3  18   -2.77    4.40
   0  -3  19    3.79    3.97
   0  -3  19   10.95    3.98
   0   3  19   -2.66    4.58
   0   3  19   -0.95    4.54
   0  -3  20    0.64    3.42
   0  -3  21    4.91    3.18
   0  -3  22    5.24    2.61
   0   3 -23  112.28   11.81
   0   4   0  979.48   58.88
   0   4  -1    2.67    2.83
   0   4  -2  457.79   31.00
   0   4   3    2.13    3.33
   0   4   4 1632.27   98.39
   0   4   5    3.82    3.69
   0  -4   5    3.53    1.62
   0   4   6 1611.90   99.14
   0   4   7    1.62    1.72
   0   4   7    1.23    3.78
   0   4   8   14.57    2.66
   0  -4   8    9.88    4.41
   0  -4   9    1.17    3.58
   0   4   9   -1.37    2.08
   0  -4  10    2.45    3.44
   0   4  10    7.73    2.67
   0   4  11    6.14    2.72
   0  -4  11   -1.68    3.20
   0  -4  11    1.27    3.55
   0   4  12  153.15   12.14
   0  -4  12  147.60   13.23
   0   4  12  133.09   15.14
   0  -4  12  168.65   13.05
   0   4  12  176.26   13.88
   0   4  13    4.01    2.77
   0  -4  13   -1.48    3.59
   0   4  13    1.21    5.23
   0   4  13    0.79    3.41
   0  -4  13    2.67    3.13
   0  -4  14  790.09   49.47
   0   4  14  790.37   52.81
   0  -4  14  757.77   48.83
   0   4  14  787.86   50.01
   0   4  14  764.34   48.48
   0  -4  15    3.80    3.97
   0   4  15   -2.59    6.18
   0   4  15   -1.83    4.12
   0   4  15   -7.42    4.10
   0  -4  15   -0.80    3.74
   0   4  16  214.31   16.76
   0   4  16  174.32   18.53
   0  -4  16  207.01   16.51
   0  -4  16  195.27   16.26
   0  -4  17   -1.58    4.35
   0   4  17   -0.88    3.90
   0   4  17    8.45    5.65
   0  -4  17   -0.80    3.26
   0   4  18   -0.91    4.01
   0  -4  18   -1.52    3.55
   0   4  18    2.20    5.43
   0  -4  18    0.77    3.75
   0  -4  19    0.70    3.65
   0  -4  19   -0.71    3.73
   0   4  19   -3.85    4.59
   0   4  19    3.49    4.15
   0  -4  20    3.65    3.23
   0  -4  21    8.20    3.93
   0  -4  22   72.11    6.74
   0   4 -23   -1.37    4.03
   0   5   0    0.59    2.77
   0   5  -1 2236.40  131.61
   0   5  -2    0.81    3.60
   0   5  -3 1375.86   85.71
   0   5   4   -1.91    3.59
   0   5   5  653.80   44.28
   0   5   6    0.55    1.71
   0   5   6   -1.23    4.07
   0   5   7 3421.65  206.46
   0   5   7 3478.18  199.09
   0   5   8   -1.54    4.08
   0   5   8    1.70    1.76
   0  -5   9   79.16   10.76
   0   5   9   84.96    7.20
   0   5  10    1.27    2.01
   0  -5  10    1.28    3.20
   0   5  11   17.45    3.72
   0  -5  11   22.27    5.54
   0   5  12    2.26    3.65
   0  -5  12   -0.67    2.92
   0   5  12    3.69    2.68
   0  -5  12    5.58    3.34
   0   5  12    2.92    3.94
   0  -5  13  380.72   24.16
   0  -5  13  329.94   23.86
   0   5  13  329.56   23.10
   0   5  13  367.77   24.95
   0   5  14   -4.72    5.62
   0  -5  14    4.97    3.82
   0  -5  14    1.47    3.57
   0   5  14    1.99    3.05
   0   5  14   -1.79    4.48
   0  -5  15  137.55   12.48
   0   5  15  154.86   14.21
   0   5  15  130.98   12.26
   0   5  15  115.62   14.24
   0  -5  15  146.61   12.76
   0  -5  16    2.31    4.03
   0   5  16   -3.25    4.18
   0   5  16   -0.97    4.22
   0  -5  16   -2.28    4.61
   0   5  16    1.23    5.67
   0   5  17   11.85    6.17
   0  -5  17   19.01    4.83
   0  -5  17   12.16    4.63
   0   5  17   13.80    5.29
   0  -5  18    4.36    3.91
   0   5  18   -5.43    6.00
   0  -5  18    0.72    3.51
   0  -5  19   -2.65    3.94
   0  -5  20    1.15    2.91
   0  -5  21  361.54   23.75
   0  -5  22    1.11    1.82
   0   5 -23    5.93    3.52
   0   6   0 9999.00  572.86
   0   6  -1    2.42    3.27
   0   6  -2  201.53   17.33
   0   6  -3    1.15    4.19
   0   6  -4 1243.24   79.11
   0   6   4 1213.87   77.25
   0   6   5   -3.71    4.51
   0   6   6 1160.97   75.12
   0   6   7    4.43    1.99
   0   6   7    3.06    4.49
   0   6   8 3931.61  225.55
   0   6   8 3895.57  234.94
   0   6   9   -0.42    2.36
   0  -6   9    2.64    3.31
   0   6  10  204.27   13.81
   0  -6  10  144.27   16.86
   0   6  11    0.73    3.24
   0   6  11    5.56    2.69
   0  -6  12 1682.14   96.66
   0   6  12 1668.61   97.74
   0   6  12 1438.54   97.16
   0   6  12 1566.37   95.83
   0  -6  12 1744.31   96.65
   0  -6  13    1.36    3.65
   0   6  13   -0.87    4.37
   0   6  13    0.94    3.97
   0  -6  13    1.34    3.42
   0   6  13   -0.61    3.02
   0   6  14  150.79   14.71
   0  -6  14  148.89   13.18
   0   6  14  129.15   14.52
   0   6  14  164.30   13.38
   0   6  15   -0.99    4.71
   0   6  15   -2.22    4.08
   0  -6  15    0.72    2.94
   0   6  15    3.31    5.07
   0  -6  15    0.73    3.60
   0   6  16  788.81   58.05
   0  -6  16  945.18   56.39
   0   6  16  962.46   58.51
   0  -6  16  902.59   56.47
   0  -6  17    1.46    3.24
   0   6  17    1.10    5.25
   0  -6  17    4.27    3.62
   0   6  18   57.83    9.40
   0  -6  18   80.38    8.53
   0  -6  19   -1.89    3.29
   0  -6  20  965.54   58.53
   0  -6  21    3.47    2.47
   0   6 -22   60.92    7.61
   0   6 -23    0.79    2.27
   0   7   0    3.53    3.41
   0   7  -1 1478.11   90.68
   0   7  -2   -1.11    4.03
   0   7  -3  209.62   19.36
   0   7   4    1.32    3.70
   0   7  -4   -2.94    4.50
   0   7   5 1145.90   75.08
   0   7  -5 1166.54   76.20
   0   7  -6    1.66    4.39
   0   7  -6   -0.67    2.23
   0   7   6   -1.54    4.32
   0   7   7 2206.91  132.69
   0   7  -7 2283.71  131.90
   0   7   7 2606.28  142.64
   0   7   8   -1.86    4.65
   0   7   9  236.62   24.35
   0   7  10    0.72    3.57
   0  -7  10    1.46    3.64
   0   7  11   36.68    5.42
   0   7  11   44.53    6.90
   0   7  12   -0.69    3.18
   0  -7  12   -1.84    2.66
   0   7  12    1.73    4.04
   0   7  13 1224.87   74.65
   0  -7  13 1218.16   72.66
   0   7  13 1078.16   73.03
   0  -7  13 1285.69   73.27
   0  -7  14    0.71    3.60
   0   7  14    2.95    4.92
   0   7  14   -7.87    4.45
   0  -7  14    2.69    3.03
   0  -7  15  573.45   36.21
   0   7  15  490.35   36.79
   0  -7  15  546.53   35.76
   0   7  15  589.18   38.44
   0  -7  16   -0.72    3.62
   0   7  16   -4.87    4.72
   0  -7  16   -2.71    3.60
   0   7  16    1.03    4.91
   0   7  17    2.87    4.40
   0  -7  17    2.11    3.88
   0   7  17    6.94    5.48
   0  -7  18    5.27    3.26
   0  -7  19  174.68   13.76
   0  -7  20    2.97    2.77
   0  -7  21  486.77   30.32
   0   7 -22    1.56    2.88
   0   8   0  246.47   17.61
   0   8  -1   -1.00    3.37
   0   8  -1    1.13    4.14
   0   8  -2   22.01    4.23
   0   8  -2   25.60    6.74
   0   8   2   25.09    5.44
   0   8  -3    0.46    2.66
   0   8  -3    2.95    4.70
   0   8   3   -0.73    4.50
   0   8  -4  281.64   19.15
   0   8  -4  256.72   24.88
   0   8   4  297.99   21.90
   0   8   4  300.62   25.61
   0   8   5   -0.84    4.52
   0   8   5    3.31    4.63
   0   8  -5    2.08    2.53
   0   8  -5   10.43    6.15
   0   8  -6  411.07   32.64
   0   8   6  444.74   33.38
   0   8  -6  357.55   24.11
   0   8   6  379.38   26.43
   0   8  -7   -1.81    4.79
   0   8   7    1.90    4.44
   0   8  -7    1.21    2.21
   0   8  -8  544.45   41.52
   0   8   8  503.63   41.77
   0   8   9    2.21    5.52
   0   8  -9    3.98    5.28
   0   8   9    2.25    3.64
   0   8  10  161.34   14.62
   0  -8  10  185.49   18.67
   0   8 -10  184.66   21.10
   0   8  11   -0.87    4.06
   0   8  12   13.00    5.27
   0   8  12    4.11    2.62
   0   8 -13   -2.65    6.20
   0   8  13    2.95    4.68
   0   8  13    1.32    2.86
   0  -8  13    0.69    3.46
   0   8  14  772.81   50.02
   0   8 -14  764.83   60.07
   0  -8  14  873.37   48.63
   0   8  14  660.96   47.43
   0   8  15    2.11    5.21
   0  -8  15    7.91    3.92
   0  -8  15    4.37    3.46
   0   8  15   -0.77    3.35
   0   8 -15    2.77    5.47
   0   8  16  126.14   14.04
   0  -8  16  150.53   12.53
   0   8 -16  130.32   20.20
   0   8  17   -2.00    5.23
   0  -8  17    2.01    3.40
   0  -8  18   38.28    5.85
   0  -8  19   -1.62    3.45
   0  -8  20  139.62   10.95
   0  -8  21    1.70    1.75
   0   8 -21   -0.58    3.12
   0   8 -22   11.72    2.90
   0   9   0    0.57    3.38
   0   9  -1  256.98   18.38
   0   9  -1  262.49   22.43
   0   9   2   -2.01    3.92
   0   9  -2   -1.47    4.12
   0   9  -2    1.06    3.22
   0   9  -3 1466.00   88.89
   0   9  -3 1517.08   96.71
   0   9   3 1552.88   90.88
   0   9   4    0.85    4.84
   0   9  -4   -1.00    2.94
   0   9   4    1.84    5.87
   0   9  -4    1.85    5.17
   0   9   5  985.45   63.02
   0   9  -5  977.06   60.15
   0   9  -5 1093.55   70.46
   0   9   5 1037.72   69.85
   0   9   6    4.06    5.08
   0   9  -6    5.89    4.59
   0   9  -6   -1.44    2.84
   0   9   6    0.86    4.62
   0   9  -7   29.36    9.08
   0   9   7   49.31   10.60
   0   9   8    0.61    2.63
   0   9   8   -4.55    6.03
   0   9  -8   -1.98    5.26
   0   9   8   -1.63    3.39
   0   9   9  357.63   26.19
   0   9   9  343.04   33.43
   0   9  -9  394.20   33.11
   0  -9  10   -1.69    3.96
   0   9 -10   -2.17    4.69
   0   9  10   -0.90    4.59
   0   9  10   -2.54    5.02
   0   9  11 1021.67   65.49
   0   9 -11 1087.46   74.87
   0   9  12   -4.99    5.38
   0   9 -12   -4.89    6.50
   0   9  13   27.11    6.94
   0   9 -13    2.56    6.05
   0  -9  14    3.57    3.84
   0   9  14    5.35    5.35
   0   9 -14   -2.63    6.59
   0   9  15   12.97    6.11
   0   9 -15   13.17    7.78
   0  -9  15   17.62    4.94
   0   9  16    4.24    5.06
   0  -9  16    3.38    3.64
   0  -9  17 1099.38   63.58
   0   9  17  954.19   65.39
   0  -9  18    1.14    2.85
   0  -9  19   17.05    3.71
   0  -9  20    0.39    2.13
   0   9 -21   21.52    3.99
   0  10   0  620.72   39.48
   0  10  -1   -0.59    3.24
   0  10  -2  184.19   20.33
   0  10  -2  204.48   15.78
   0  10   2  232.97   16.90
   0  10  -3    1.87    4.39
   0  10  -3    2.90    3.32
   0  10   3    0.78    3.80
   0  10   4 5266.15  318.78
   0  10  -4 5444.73  308.15
   0  10  -4 5099.76  317.72
   0  10   4 5367.54  310.31
   0  10  -5   -0.56    3.06
   0  10   5    1.93    4.67
   0  10   5    6.69    5.58
   0  10  -5    2.16    5.05
   0  10   6   78.62    9.81
   0  10   6   81.79    8.15
   0  10  -6   81.93    8.01
   0  10  -6   80.40   13.76
   0  10   6   60.73    9.21
   0  10   6   83.83   14.20
   0  10   7   -2.43    4.80
   0  10   7   -1.25    2.65
   0  10  -7    2.15    5.03
   0  10   8 1135.16   72.48
   0  10   8 1190.87   70.87
   0  10   8 1172.90   82.49
   0  10  -8 1136.07   79.68
   0  10  -9    4.35    6.94
   0  10   9   -2.65    6.64
   0  10   9    2.94    4.59
   0  10  10  454.53   33.83
   0  10  10  529.15   44.11
   0  10 -10  507.03   41.13
   0  10 -11   -2.34    5.07
   0  10  11    1.05    4.83
   0  10 -12 1443.54   95.81
   0  10  12 1381.46   86.83
   0  10 -13    5.05    5.47
   0  10  13   -1.10    5.92
   0  10  14   78.52   11.46
   0 -10  14  105.30    9.88
   0  10 -14   86.90   15.41
   0 -10  15    0.68    3.35
   0  10  15    1.10    5.40
   0  10  16 1135.44   76.67
   0 -10  16 1295.16   74.55
   0 -10  17   -0.58    3.22
   0  10  17    6.81    5.44
   0 -10  18  169.74   12.92
   0  10 -19   -2.68    3.89
   0 -10  19   -3.42    2.81
   0 -10  20  185.26   12.80
   0  11   0    3.96    3.41
   0  11  -1   42.82    6.39
   0  11  -2   -0.65    3.13
   0  11   2    2.96    4.33
   0  11   3 1744.74  114.36
   0  11   3 1740.32  102.96
   0  11  -3 1681.46  110.85
   0  11  -3 1687.59  101.64
   0  11   4   -2.75    4.36
   0  11   4    3.08    5.21
   0  11  -4    2.25    5.96
   0  11  -4   -0.64    3.04
   0  11   4    2.49    5.82
   0  11   5  369.34   29.16
   0  11   5  372.52   29.62
   0  11  -5  437.26   37.14
   0  11   5  384.77   36.92
   0  11   5  427.35   27.48
   0  11  -5  418.22   27.24
   0  11   6    2.65    6.63
   0  11   6    5.43    5.52
   0  11  -6    6.42    4.37
   0  11  -6    2.36    5.91
   0  11   6    1.99    3.00
   0  11   7   18.88    4.42
   0  11  -7   27.98    8.84
   0  11   7   32.78   10.60
   0  11  -8   -2.31    5.00
   0  11   8    2.23    3.59
   0  11   8    2.82    7.48
   0  11  -9  423.72   38.42
   0  11   9  487.67   43.16
   0  11   9  435.79   32.32
   0  11 -10    2.34    5.47
   0  11  10   -2.95    6.38
   0  11  10    2.28    5.04
   0  11 -11  874.90   65.02
   0  11  11  880.54   57.86
   0  11 -12   -4.90    6.51
   0  11  12    1.16    5.34
   0  11 -13   17.39    8.00
   0  11  13   20.77    6.78
   0 -11  14   -2.05    3.87
   0  11  14    6.79    5.57
   0 -11  15   60.54    7.59
   0  11  15   53.75    9.38
   0  11  16   -1.03    5.25
   0 -11  16    2.95    3.46
   0  11 -17  348.33   25.42
   0 -11  17  358.77   23.50
   0  11  17  337.42   26.06
   0  11 -18   -0.70    3.90
   0 -11  18   -1.35    2.26
   0  11 -19  139.80   11.93
   0 -11  19  157.17   11.09
   0  11 -20   -0.38    2.14
   0  12   0  937.31   58.19
   0  12  -1    6.36    4.16
   0  12   2  468.20   31.49
   0  12  -2  456.31   31.04
   0  12   3    2.56    3.99
   0  12   3    2.07    4.57
   0  12   3   -2.84    5.63
   0  12  -3    0.71    3.76
   0  12   4   45.69   12.74
   0  12  -4   65.61   12.89
   0  12   4   47.37    6.75
   0  12   4   49.40    8.95
   0  12   4   64.26    8.61
   0  12  -4   54.23    7.28
   0  12  -5    2.49    6.24
   0  12   5   -2.91    5.16
   0  12   5   -1.19    5.47
   0  12   5    0.72    3.04
   0  12  -5   -0.86    3.82
   0  12   6  101.43   13.25
   0  12  -6  121.23   12.36
   0  12   6  124.84   19.74
   0  12  -6  104.35   17.04
   0  12   6  125.50   11.34
   0  12   7   -3.04    6.58
   0  12  -7   -0.93    4.51
   0  12   7   -1.26    6.02
   0  12   7   -0.78    3.50
   0  12  -7   -2.45    5.30
   0  12   8  760.32   66.90
   0  12  -8  882.87   56.85
   0  12   8  909.13   56.04
   0  12  -8  946.52   66.38
   0  12   9   -3.13    5.54
   0  12  -9    0.97    4.01
   0  12  -9    4.77    5.17
   0  12 -10 1222.04   90.01
   0  12 -10 1385.47   82.49
   0  12  10 1350.29   84.40
   0  12  10 1254.17   94.56
   0  12 -11    2.40    5.61
   0  12  11   -2.52    6.61
   0  12 -12  248.12   28.16
   0  12  12  304.66   24.21
   0  12 -13    5.12    4.97
   0  12  13    1.20    6.28
   0  12 -14   21.84    6.60
   0  12  14   13.78    6.19
   0 -12  14   20.03    4.83
   0  12 -15    2.78    4.49
   0 -12  15   -2.38    3.53
   0  12  15   -1.09    5.99
   0  12  16   25.85    6.46
   0 -12  16   15.42    3.84
   0  12 -16   10.76    4.83
   0  12 -17    2.10    4.01
   0 -12  17    0.46    2.38
   0  12  17    1.74    4.93
   0 -12  18  253.76   16.67
   0  12 -18  236.79   17.61
   0  12 -19   -2.02    2.43
   0  13   0   -0.77    3.46
   0  13  -1  292.91   22.16
   0  13   1  313.99   22.93
   0  13   2    1.64    3.98
   0  13   2    0.94    4.26
   0  13  -2    9.18    4.69
   0  13   3   45.48   12.74
   0  13   3   40.32    7.87
   0  13   4    0.79    3.49
   0  13   4   -3.24    7.58
   0  13   4    7.06    5.41
   0  13   5    3.26    5.83
   0  13   5   19.09    4.84
   0  13  -5   28.43    9.99
   0  13   5   11.50    6.54
   0  13  -6    7.86    4.50
   0  13  -6   -5.11    7.14
   0  13   6   13.56    6.99
   0  13   6   -3.28    5.81
   0  13   6   -1.63    3.61
   0  13   7  950.16   75.92
   0  13  -7  895.37   70.80
   0  13  -7 1001.59   62.38
   0  13   7 1038.24   65.89
   0  13   7  992.51   62.04
   0  13   8    1.74    4.06
   0  13   8   -3.32    5.87
   0  13   8    1.43    6.07
   0  13  -8    7.27    6.43
   0  13  -8    0.90    3.96
   0  13  -9   20.80    5.58
   0  13  -9   30.84    8.99
   0  13   9   19.81   10.20
   0  13 -10    0.92    4.13
   0  13 -10   -2.34    5.07
   0  13  10    3.23    4.94
   0  13 -11  172.73   15.48
   0  13 -11  168.75   21.08
   0  13  11  167.57   17.81
   0  13 -12    0.92    4.39
   0  13  12    5.21    5.98
   0  13  13  643.29   44.99
   0  13 -13  652.39   42.94
   0  13 -14    0.85    4.26
   0 -13  14   -2.98    3.61
   0  13  14    1.15    5.91
   0  13  15   96.96   11.98
   0  13 -15   97.24   10.62
   0 -13  15  112.69    9.42
   0  13 -16   -1.34    3.54
   0  13  16    5.62    5.37
   0 -13  16   -0.47    2.67
   0  13 -17   27.11    4.77
   0  13  17   30.09    6.28
   0 -13  17   29.86    4.20
   0  13 -18    0.81    2.23
   0  13 -19   43.01    4.12
   0  14   0   35.51    5.83
   0  14  -1    2.00    3.45
   0  14   1    3.31    3.88
   0  14   2   11.25    9.45
   0  14   2   26.14    6.39
   0  14  -2   19.49    4.43
   0  14   3    6.32    5.19
   0  14   3   -3.65    6.46
   0  14   4  439.54   30.32
   0  14   4  353.61   39.94
   0  14   4  364.10   27.46
   0  14   5   -2.60    5.75
   0  14   5    3.58    6.34
   0  14   5    2.61    3.53
   0  14   6    3.55    7.69
   0  14   6    3.54    3.91
   0  14   6    2.81    6.34
   0  14   7   -2.97    6.83
   0  14  -7   -2.44    4.82
   0  14   7    7.04    6.96
   0  14  -7    2.44    3.94
   0  14   7    0.90    4.07
   0  14   8  298.04   34.30
   0  14   8  300.66   22.59
   0  14  -8  281.49   21.79
   0  14   8  308.61   26.29
   0  14  -8  275.23   29.01
   0  14  -9   -2.28    5.33
   0  14  -9    0.81    3.52
   0  14   9    3.38    5.98
   0  14 -10  604.10   37.41
   0  14 -10  451.05   43.23
   0  14 -11    3.20    4.01
   0  14  12    2.67    6.47
   0  14 -12    3.91    3.97
   0  14 -13    5.22    3.96
   0  14  13   -2.46    6.63
   0  14 -14  192.78   15.58
   0 -14  14  204.14   14.78
   0  14  14  188.88   17.94
   0  14  15   -1.00    5.01
   0  14 -15    0.60    3.10
   0 -14  15   -0.47    2.37
   0 -14  16   62.43    5.97
   0  14 -16   52.41    6.21
   0  14  16   46.37    8.08
   0  14 -17   -0.74    2.04
   0  15   0   -0.73    3.42
   0  15   1  299.12   39.27
   0  15  -1  349.81   24.44
   0  15   1  366.16   25.47
   0  15   2   -4.12    8.93
   0  15   2    3.60    3.98
   0  15   3 1019.61   89.47
   0  15   3 1210.75   74.12
   0  15   3 1209.95   74.45
   0  15   4   11.77   10.41
   0  15   4    1.13    5.47
   0  15   4   -0.94    4.53
   0  15   5 1143.43   95.50
   0  15   5 1250.69   80.40
   0  15   6    2.75    5.96
   0  15   6    0.93    3.96
   0  15   6    3.73    8.09
   0  15   7    2.94    7.11
   0  15   7    4.67    4.30
   0  15   7    3.63    7.19
   0  15   8    3.06    7.28
   0  15   8   -3.51    5.38
   0  15  -8   -1.38    3.24
   0  15   9  997.32   66.39
   0  15  -9  977.08   60.53
   0  15 -10    4.02    3.41
   0  15 -11  808.73   50.43
   0  15  12   -1.32    6.98
   0  15 -12   -0.62    3.28
   0  15  13   93.13   12.87
   0  15 -13   94.51    9.46
   0 -15  13  119.66    9.52
   0  15  14   -3.20    5.50
   0 -15  14    1.83    2.50
   0  15 -14   -2.49    2.79
   0 -15  15   47.64    5.19
   0  15 -15   43.58    5.16
   0  15  15   48.66    8.21
   0  15  16    3.00    4.50
   0  15 -16    1.46    1.76
   0  16   0  956.08   85.84
   0  16   0 1076.64   65.04
   0  16   1   -3.84    4.19
   0  16  -1    0.64    3.45
   0  16   2  534.47   34.30
   0  16   2  494.25   35.06
   0  16   3   -0.94    4.31
   0  16   3    4.26    7.54
   0  16   3   -2.00    4.24
   0  16   4 4455.15  243.34
   0  16   4 4105.04  242.31
   0  16   5    3.96    7.83
   0  16   5   -0.97    4.77
   0  16   5    2.31    5.68
   0  16   6   39.24    7.32
   0  16   6   44.11    9.39
   0  16   6   30.41   11.86
   0  16   7    9.50    7.51
   0  16   7    6.54    4.77
   0  16   8 1536.52   96.98
   0  16   9   -1.43    7.16
   0  16  10 1029.27   67.99
   0  16 -11    0.92    2.48
   0  16 -12 1097.99   65.28
   0  16  13    1.10    5.51
   0  16 -13   -1.07    2.46
   0 -16  13    3.56    2.64
   0 -16  14    1.13    1.95
   0  16  14    0.96    5.35
   0  16 -14    1.35    1.57
   0  16  15   -3.96    5.10
   0  17   0    9.00    7.96
   0  17   0    0.65    3.34
   0  17   1  246.08   18.37
   0  17   1  202.46   32.03
   0  17  -1  208.25   31.88
   0  17   1  253.65   20.66
   0  17   2   -1.03    4.38
   0  17   2    1.54    3.97
   0  17   3 1381.05   83.55
   0  17   3 1350.59   84.58
   0  17   4    0.99    4.46
   0  17   4    0.92    4.30
   0  17   5  629.21   41.11
   0  17   5  572.25   40.23
   0  17   6   -0.94    4.70
   0  17   6   -3.26    5.60
   0  17   7  104.88   12.94
   0  17   8    4.81    6.30
   0  17   9  646.81   44.81
   0  17  10    1.19    5.97
   0  17  11 1002.01   64.65
   0 -17  12    1.25    2.33
   0 -17  13   38.49    4.42
   0  17  14    0.78    4.47
   0  18   0  131.58   13.35
   0  18   1   -3.94    4.70
   0  18   1    0.61    2.99
   0  18   2  434.58   30.38
   0  18   2  408.22   28.10
   0  18   3    3.57    3.57
   0  18   3   -1.93    4.17
   0  18   4  192.35   16.72
   0  18   4  184.97   15.58
   0  18   5   -0.82    4.09
   0  18   5   -0.91    3.96
   0  18   6  181.13   15.82
   0  18   7   -0.91    4.32
   0  18   8  113.16   12.11
   0  18   9   -1.88    5.06
   0  18  10  856.35   54.96
   0  18  11   -4.37    5.36
   0  18  12    6.33    5.11
   0  19   0    0.84    3.99
   0  19  -1   43.95    7.04
   0  19   1   39.25    7.03
   0  19  -2    4.70    4.04
   0  19   2   -0.51    2.53
   0  19   2   -2.56    4.59
   0  19   3  119.25   10.89
   0  19   3  152.78   13.23
   0  19   4   -0.83    3.87
   0  19   4    1.17    3.15
   0  19   5   69.01    7.89
   0  19   6    0.64    3.53
   0  19   7  155.94   13.13
   0  19   8    1.32    3.59
   0  19   9    0.65    3.64
   0  19  10   -1.24    3.72
   0  19  11  248.47   17.87
   0  19  12    0.92    2.81
   0  20   0  301.17   21.36
   0  20   1    0.66    3.21
   0  20  -1    1.87    3.40
   0  20   2   26.67    5.17
   0  20  -2   27.32    4.89
   0  20   3    0.65    3.12
   0  20  -3    1.12    2.61
   0  20  -4   34.53    4.91
   0  20   4   29.10    4.14
   0  20  -5    0.49    2.43
   0  20   5    0.39    2.54
   0  20  -6   12.09    3.25
   0  20   6   16.92    3.49
   0  20   7    3.61    2.69
   0  20   8  159.76   11.71
   0  20   9   -0.35    2.20
   0  21   0   -0.87    2.35
   0  21  -1    2.11    2.18
   0  21   1    1.75    2.39
   0  21  -2   -0.81    2.40
   0  21  -3  277.37   18.34
   0  21  -4    0.35    1.91
   0  21  -5   39.36    4.36
   0  21  -6   -1.16    1.64
   0  21  -7   73.91    5.88
   1   0   0    1.24    0.69
   1   0   0   -0.10    0.62
   1   0   1 3087.73  182.59
   1   0   1 3226.12  181.75
   1   0   2   -0.33    1.66
   1   0   2    1.79    2.45
   1   0   3    2.84    3.62
   1   0   3    2.10    2.29
  -1   0   4    0.70    4.22
   1   0   4    3.13    2.65
   1   0   5  564.09   36.37
   1   0   6   -0.77    3.10
   1   0   7 2932.49  173.00
   1   0   8    1.09    3.61
  -1   0   8    0.82    1.93
   1   0   8   -0.27    1.66
  -1   0   9   68.63    6.25
   1   0   9   78.39   10.97
   1   0   9   75.80    6.38
  -1   0  10    3.86    2.32
   1   0  10   -0.38    2.17
  -1   0  11   85.58    8.30
   1   0  11  111.90    8.85
  -1   0  12    2.68    2.77
  -1   0  12    5.39    4.50
   1   0  12   -3.28    5.29
   1   0  13  999.75   62.25
  -1   0  13  958.26   60.62
  -1   0  13  924.97   58.25
   1   0  14   -4.65    4.93
  -1   0  14    0.70    2.98
  -1   0  14   -0.97    4.27
  -1   0  15  873.02   56.94
  -1   0  15  884.39   58.38
   1   0  15 1017.13   60.49
   1   0  16    5.68    4.83
  -1   0  16    4.90    4.76
  -1   0  16    7.47    4.29
  -1   0  17   -0.96    4.64
  -1   0  17    0.86    4.15
   1   0  17    1.09    5.68
  -1   0  18    5.96    4.71
   1   0  18    1.01    4.81
  -1   0  18    6.37    5.16
  -1   0  19  209.05   17.53
  -1   0  19  237.72   18.20
  -1   0  20    4.32    3.19
  -1   0  20    1.49    4.00
  -1   0  21  434.82   27.68
   1   0  21  387.69   27.22
  -1   0  21  403.74   27.14
  -1   0  22    2.83    2.25
   1   0  22   -0.50    2.91
   1   1   0 1214.92   70.58
   1   1   1   20.77    3.50
   1   1  -1   27.77    2.89
  -1   1   2 1188.84   69.49
   1   1   2 1225.79   70.66
   1  -1   3    8.97    3.89
   1   1   3   19.72    3.69
  -1  -1   3   18.38    1.81
  -1   1   3   17.75    7.54
   1  -1   4  549.00   35.49
  -1  -1   4  519.08   32.56
   1   1   4  592.60   35.18
   1  -1   4  578.65   35.75
  -1  -1   5   18.50    2.78
   1  -1   5   20.87    4.95
   1  -1   5   30.63    5.45
   1   1   5   21.60    4.54
   1  -1   6 2418.08  139.28
  -1  -1   6 2286.92  135.74
   1   1   6 2404.17  138.60
   1  -1   7    4.94    4.11
   1   1   7    5.47    3.96
   1  -1   8   10.50    2.53
  -1  -1   8    9.08    2.61
   1   1   8   11.70    2.29
  -1   1   8   18.65    2.61
   1  -1   8   12.57    4.79
  -1   1   9    1.87    1.98
  -1  -1   9    3.92    2.39
   1  -1   9    1.31    4.93
   1  -1   9    6.39    2.34
   1   1   9    6.47    2.21
  -1   1  10   32.84    4.11
   1   1  10   31.72    4.06
   1  -1  10   23.74    4.07
   1  -1  10   23.92    6.79
  -1  -1  10   22.90    3.93
   1  -1  11    9.27    3.16
  -1   1  11   12.21    3.27
   1   1  11   10.79    3.05
  -1  -1  11    5.33    3.02
  -1   1  12   -0.51    2.60
  -1  -1  12   -0.56    2.88
  -1  -1  12    4.13    3.72
   1  -1  12   -1.00    4.41
   1  -1  13    4.13    4.39
  -1  -1  13   10.24    3.64
  -1   1  13    9.51    3.26
  -1  -1  13    2.61    3.55
   1  -1  14 1630.50   97.24
  -1   1  14 1563.90   94.38
  -1  -1  14 1593.76   94.64
  -1  -1  14 1535.93   95.78
  -1   1  15    5.32    3.87
  -1  -1  15    3.70    4.10
  -1  -1  15   10.97    3.99
   1  -1  15   -2.11    4.86
  -1  -1  16   29.86    6.62
  -1  -1  16   28.96    5.96
  -1   1  16   14.07    5.44
  -1   1  17   31.44    6.39
  -1  -1  17   43.81    7.07
   1  -1  17   34.19    7.15
  -1  -1  17   41.43    7.71
  -1   1  18   19.30    5.48
  -1  -1  18   29.91    6.32
  -1  -1  18   23.74    5.85
   1  -1  18   22.66    6.34
  -1  -1  19    7.69    3.81
  -1  -1  19    9.76    4.79
  -1   1  19    7.51    3.79
  -1  -1  20  131.10   12.03
  -1   1  20  143.85   12.23
  -1  -1  20  122.21   11.36
  -1   1  21   11.79    3.82
   1  -1  21   20.88    4.26
   1   1  21   14.49    4.05
  -1  -1  21   16.91    3.85
  -1  -1  21   13.50    4.59
  -1  -1  22  166.12   12.30
   1  -1  22  157.36   12.31
   1   2   0  191.58   12.52
  -1   2   0  171.86   10.60
   1   2  -1   39.61    4.95
  -1   2   2  736.96   43.90
  -1   2   3  765.18   50.68
  -1   2   3  602.28   37.87
   1  -2   4   73.76    8.02
  -1   2   4   67.88    6.84
  -1  -2   5  773.35   46.48
   1  -2   5  760.40   48.15
   1   2   5  791.59   49.66
   1  -2   6  112.26   10.73
  -1  -2   6  116.13    9.34
   1  -2   6  129.58   12.83
   1  -2   7  277.78   22.04
  -1  -2   7  251.87   18.00
  -1  -2   8   16.79    3.81
  -1  -2   8   13.99    2.96
   1  -2   8   17.60    3.32
   1  -2   8   22.19    6.15
  -1   2   8   15.27    2.62
   1   2   8   21.39    2.93
  -1  -2   9  554.80   34.75
  -1   2   9  590.81   34.32
   1  -2   9  522.71   40.18
   1  -2   9  558.93   34.82
   1   2   9  558.63   34.15
   1  -2  10  238.46   16.11
   1   2  10  223.24   15.22
   1  -2  10  232.43   21.58
  -1   2  10  217.51   15.15
  -1  -2  10  221.07   15.91
   1  -2  11  968.93   57.70
  -1  -2  11  922.23   57.54
   1  -2  11  874.24   63.87
  -1   2  11  979.49   57.02
   1  -2  12   75.03    9.69
   1  -2  12   70.81   11.72
  -1   2  12   87.38    7.75
  -1  -2  12   76.12    8.02
  -1  -2  12   94.41    9.62
  -1   2  12   93.99   11.17
   1   2  13  171.22   15.28
  -1   2  13  179.93   17.07
   1  -2  13  202.48   16.55
   1   2  13  194.10   18.31
  -1  -2  13  163.84   14.21
  -1  -2  13  179.22   15.33
  -1   2  13  183.49   13.94
  -1  -2  14  182.60   15.08
   1  -2  14  167.58   15.89
  -1   2  14  201.77   17.73
   1   2  14  173.53   18.07
  -1   2  14  186.18   14.69
  -1  -2  14  197.47   16.02
   1  -2  15   20.21    6.13
  -1   2  15   19.43    5.12
  -1  -2  15   21.08    6.08
  -1   2  15   25.71    6.88
   1   2  15   10.75    7.22
  -1  -2  15   24.02    5.31
  -1  -2  16   64.28    8.09
   1  -2  16   47.87    8.29
  -1   2  16   57.12    8.15
  -1  -2  16   56.16    8.31
  -1   2  16   63.32    9.18
   1   2  16   56.57   10.00
  -1   2  17  386.38   30.00
  -1   2  17  383.33   28.74
  -1  -2  17  432.93   29.54
   1   2  17  434.22   31.67
   1  -2  17  435.24   29.80
  -1  -2  17  407.25   28.71
  -1  -2  18   65.25    8.35
  -1   2  18   44.73    7.49
   1   2  18   58.84    9.22
   1  -2  18   57.49    8.32
  -1   2  18   42.78    8.15
  -1  -2  18   37.91    7.13
  -1  -2  19    5.12    4.17
  -1   2  19    5.27    4.49
  -1   2  19    6.83    4.62
  -1  -2  20   12.41    4.57
  -1   2  20    4.55    4.21
  -1  -2  20    5.59    3.89
  -1   2  20   13.03    5.18
  -1  -2  21   39.33    5.84
   1   2  21   36.60    6.28
  -1  -2  21   57.68    6.80
  -1   2  21   49.76    6.67
  -1   2  21   49.43    6.54
   1  -2  21   49.86    6.20
   1  -2  22    7.74    3.07
  -1  -2  22   13.61    3.23
  -1   3   0  905.64   53.59
   1   3   0  952.90   55.59
  -1   3  -1  356.11   23.02
  -1   3   1  404.66   30.14
   1   3  -1  380.20   24.70
   1   3  -2 3760.37  218.99
  -1   3   3    2.99    2.38
  -1   3   4  470.36   17.70
  -1   3   4  707.75   43.59
   1  -3   5  394.36   27.08
   1   3   5  429.74   29.52
  -1   3   5  405.76   27.74
   1   3   6 1528.56   94.33
   1  -3   6 1510.49   91.04
  -1   3   6 1553.69   92.50
   1  -3   7  103.24   12.14
  -1  -3   7   81.11    8.47
   1  -3   8  946.40   65.08
  -1   3   8 1028.26   58.58
  -1  -3   8  888.53   60.74
   1   3   8 1024.59   58.55
   1   3   9  140.55   10.13
  -1  -3   9  127.82   12.18
   1  -3   9  131.92   15.58
  -1   3   9  150.38   10.27
   1   3  10 4716.82  265.39
   1  -3  10 4620.21  273.47
  -1   3  10 4754.67  265.45
   1  -3  10 4583.61  266.33
  -1  -3  10 4404.33  266.05
  -1  -3  11  149.09   12.20
   1  -3  11  157.59   12.48
  -1   3  11  163.17   11.72
   1  -3  11  129.78   16.45
   1   3  12   -0.77    3.95
   1   3  12    4.33    5.06
  -1   3  12    3.90    2.73
  -1   3  12    2.32    4.92
  -1  -3  12    1.19    2.98
   1  -3  12    5.21    4.61
  -1  -3  12   10.14    3.95
   1  -3  12   -0.82    3.72
  -1  -3  13    8.44    4.11
  -1   3  13   16.66    6.33
   1  -3  13   13.63    4.79
   1   3  13    6.07    5.39
  -1  -3  13    5.88    3.36
   1   3  13    3.39    4.27
  -1   3  13   14.71    3.88
   1   3  14   69.52   11.27
   1  -3  14   78.63    9.57
   1   3  14   73.66    9.94
  -1  -3  14   75.28    8.61
  -1   3  14   82.16    8.54
  -1  -3  14   79.95    9.28
  -1   3  14   79.11   11.57
  -1   3  15    2.38    5.39
  -1  -3  15    5.32    3.96
   1  -3  15   15.09    5.00
  -1   3  15   14.09    4.24
  -1  -3  15   19.30    5.38
   1   3  15    6.81    6.84
  -1   3  16   89.88    9.61
  -1   3  16   63.42   10.49
   1  -3  16   93.34   10.36
  -1  -3  16   93.12    9.61
  -1  -3  16   82.88    9.87
   1   3  16   73.19   12.21
  -1  -3  17   61.78    8.42
  -1  -3  17   80.98    8.79
   1  -3  17   73.18    8.76
  -1   3  17   74.28   10.32
   1   3  17   50.28    9.89
  -1   3  17   46.92    8.27
  -1  -3  18 1173.21   70.71
   1   3  18 1191.92   73.26
  -1   3  18 1173.09   72.03
  -1   3  18 1069.04   70.70
   1  -3  18 1143.67   70.66
  -1  -3  18 1134.49   70.17
  -1   3  19    5.37    4.49
  -1  -3  19    9.80    3.94
  -1   3  19    5.98    4.09
  -1  -3  19    6.75    4.16
  -1  -3  20   87.49    8.97
  -1   3  20   86.94    9.46
  -1  -3  20   77.33    8.43
  -1   3  20   82.59    9.30
  -1  -3  21   23.54    4.45
   1  -3  21   19.03    4.09
  -1  -3  22  222.87   15.31
   1  -3  22  216.87   15.33
  -1   3 -23    6.34    4.25
  -1   4   0 2811.55  163.46
  -1   4   0 2970.16  171.12
  -1   4  -1   20.31    3.40
  -1   4   1   15.84    9.67
  -1   4  -1   27.64    7.11
  -1   4   2  109.76   22.20
  -1   4   3 1479.24   27.40
   1   4   3    0.82    2.39
   1   4   4  461.25   32.94
  -1   4   4  488.14   32.00
  -1   4   5  479.90   32.38
   1   4   5  463.48   33.64
  -1   4   6  378.89   26.49
   1   4   6  329.01   27.26
   1  -4   6  351.07   24.09
  -1   4   7   85.20    6.50
   1   4   7   85.86    6.46
   1   4   7   97.46   12.27
   1  -4   7   61.44    7.43
  -1   4   7   76.02   10.17
  -1   4  -7   81.92    8.20
  -1   4   8  477.49   28.98
   1  -4   8  448.12   35.16
   1   4   8  478.62   28.93
  -1  -4   8  453.73   31.80
  -1   4   9  409.82   24.64
   1   4   9  378.92   24.47
  -1  -4   9  385.66   27.29
   1  -4   9  360.99   30.63
   1  -4  10  162.46   17.64
  -1   4  10  153.73   11.46
  -1  -4  11 1094.45   65.74
   1  -4  11 1027.77   65.78
   1  -4  11 1101.01   72.88
  -1   4  11 1132.62   65.12
   1   4  12  465.73   30.11
   1   4  12  407.97   30.58
   1  -4  12  469.57   30.07
  -1   4  12  420.50   32.04
   1  -4  12  367.63   33.59
  -1   4  12  440.34   28.95
  -1   4  12  414.30   27.83
  -1  -4  12  434.02   28.63
  -1  -4  12  429.99   29.10
   1   4  13   28.93    6.19
   1  -4  13   38.75    8.73
  -1   4  13   35.57    8.18
   1   4  13   23.10    6.79
  -1  -4  13   37.44    5.96
  -1   4  13   32.02    5.69
   1  -4  13   41.20    6.57
  -1  -4  13   29.99    5.14
  -1   4  13   32.75    4.96
  -1  -4  14   21.01    4.93
  -1   4  14   20.37    4.54
   1   4  14   20.80    6.80
  -1  -4  14   23.99    5.10
   1  -4  14   21.19    5.36
   1   4  14   19.08    5.93
  -1   4  14   32.60    5.85
  -1   4  14   26.18    7.09
  -1   4  15   81.71   11.72
  -1  -4  15   76.21    9.32
   1  -4  15   79.69    9.56
  -1   4  15   95.74   10.30
  -1   4  15   82.43    9.23
   1   4  15   87.05   10.79
   1   4  15   70.52   11.58
  -1  -4  15  106.47    9.78
   1   4  16  347.25   28.35
  -1   4  16  336.03   27.38
  -1  -4  16  359.73   25.41
   1  -4  16  366.36   25.62
  -1   4  16  342.28   25.25
  -1  -4  16  354.17   25.13
  -1  -4  17  413.09   27.82
   1  -4  17  427.72   28.09
  -1   4  17  417.71   29.98
  -1   4  17  334.49   27.26
   1   4  17  407.11   30.70
  -1  -4  17  375.78   27.18
  -1   4  18   21.53    6.43
  -1  -4  18    6.93    4.23
  -1   4  18    8.83    4.65
  -1  -4  18    5.88    3.98
  -1   4  19   65.00    8.86
  -1   4  19   63.00    8.34
  -1  -4  19   60.91    7.55
  -1  -4  19   63.64    7.85
  -1  -4  20   85.04    8.62
  -1  -4  20   84.79    8.43
  -1   4  20   89.92    9.78
   1  -4  20   83.28    8.52
   1  -4  21   11.15    3.25
  -1  -4  21   15.21    3.50
   1  -4  22   18.21    3.43
  -1   4 -22   36.00    7.16
  -1  -4  22   27.80    3.83
  -1   4 -23  229.58   17.13
  -1   5   0 1032.03   61.74
  -1   5   0 1046.27   71.41
  -1   5  -1 1889.93  113.37
  -1   5  -1 1999.62  120.43
  -1   5   1 2078.25  128.49
  -1   5  -2    1.96    3.13
  -1   5  -2   11.17    6.50
  -1   5  -3  407.45   30.61
   1   5   3  424.11   29.95
   1   5   4  824.74   56.02
  -1   5   4  894.15   54.88
  -1   5  -4  858.13   55.72
  -1   5   5 1970.64  112.79
   1   5   5 1803.91  113.74
  -1   5  -5 1806.60  112.24
  -1   5   6 1242.89   73.87
  -1   5   6 1320.66   79.90
  -1   5  -6 1243.00   78.34
   1  -5   6 1281.10   76.62
   1   5   6 1256.04   81.01
   1   5   6 1281.92   73.86
  -1   5   7  468.35   33.33
   1   5   7  475.96   35.12
   1  -5   7  405.12   28.82
  -1   5   7  452.48   27.52
   1   5   7  469.19   27.51
  -1   5  -7  402.74   30.71
  -1  -5   8   64.17    8.51
   1   5   8   52.27   10.73
   1   5   8   69.67    6.32
  -1   5   9  473.96   28.15
  -1  -5   9  429.24   31.01
   1   5   9  434.32   27.88
   1  -5   9  422.20   34.64
   1  -5  10   81.81   13.16
  -1   5  10  120.31    9.26
  -1   5  11  807.03   50.28
   1  -5  11  911.62   58.92
   1   5  11  825.99   52.10
  -1   5  12   18.59    3.75
  -1  -5  12    7.95    3.62
  -1   5  12    6.74    4.80
   1  -5  12   10.39    6.16
   1  -5  12   15.13    4.32
   1   5  12    7.42    4.42
   1   5  12    7.44    3.64
  -1  -5  12   10.94    3.93
  -1   5  12   16.05    4.45
  -1  -5  13  158.70   13.51
  -1   5  13  141.25   13.32
  -1   5  13  184.55   13.27
   1  -5  13  181.21   14.20
  -1  -5  13  191.47   13.71
  -1   5  13  141.75   15.92
   1   5  13  134.16   14.14
   1   5  13  128.67   14.21
  -1  -5  14  484.34   31.34
  -1   5  14  427.70   34.06
   1  -5  14  475.09   31.71
   1   5  14  446.68   32.87
  -1   5  14  469.17   31.00
  -1  -5  14  457.01   31.38
   1   5  14  450.02   33.53
  -1   5  14  507.15   32.33
  -1   5  15  258.37   20.64
  -1  -5  15  264.46   19.72
   1   5  15  281.26   22.05
  -1   5  15  254.66   19.65
  -1   5  15  258.86   22.90
   1  -5  15  289.62   20.45
  -1  -5  15  265.33   19.94
   1   5  15  236.10   21.75
  -1   5  16   47.67    7.88
  -1   5  16   56.38    7.78
   1   5  16   55.59    9.62
  -1  -5  16   48.16    7.35
  -1  -5  16   48.17    7.00
  -1   5  16   32.54    7.97
   1  -5  16   58.07    7.80
  -1  -5  17  322.91   22.43
   1   5  17  284.69   24.78
  -1  -5  17  330.51   22.81
  -1   5  17  287.35   22.64
  -1   5  17  297.05   24.37
  -1   5  18   12.29    5.39
  -1  -5  18   10.09    4.45
  -1  -5  18    7.74    4.21
  -1   5  19   67.69    9.27
  -1  -5  19   73.40    8.06
  -1  -5  19   76.37    8.29
   1  -5  20   38.74    5.47
  -1  -5  20   36.42    5.19
   1  -5  21  141.18   10.93
  -1  -5  21  133.35   10.73
  -1   5 -22   88.12    9.97
   1   5 -23   55.96    6.37
  -1   6   0 2265.74  131.03
   1   6   0 2198.80  133.28
  -1   6   0 2223.76  142.51
  -1   6  -1 1531.55   93.34
   1   6  -1 1557.38   96.09
  -1   6  -1 1466.02  101.21
   1   6  -2  458.34   34.47
  -1   6  -2  454.19   31.94
  -1   6  -2  495.28   37.85
  -1   6  -3    1.93    3.32
  -1   6  -3    3.01    5.95
   1   6   3    4.61    3.39
   1   6  -3    5.37    5.18
  -1   6  -4 1297.74   78.46
  -1   6   4 1246.93   76.78
   1   6   4 1175.05   77.82
  -1   6  -4 1192.40   79.06
  -1   6  -5  357.29   30.01
   1   6   5  444.89   31.58
  -1   6   5  388.01   29.38
  -1   6   6 1062.91   70.60
   1   6   6 1168.16   73.24
  -1   6  -6 1090.41   70.98
   1   6   7 2926.15  187.23
  -1   6   7 3204.22  186.15
  -1   6   7 3115.95  178.63
   1   6   8  721.52   46.22
  -1   6   8  804.84   46.57
  -1   6   8  856.70   54.65
   1   6   8  784.81   55.96
  -1   6   9   32.20    4.41
   1  -6   9   32.84    8.24
  -1  -6   9   19.97    5.09
   1  -6  10  673.58   47.42
   1   6  10  612.23   40.94
  -1   6  10  642.74   39.46
   1   6  11   78.89    9.50
  -1  -6  11   82.76    8.38
  -1   6  11   76.33    9.80
  -1   6  11   89.09    9.02
   1  -6  11   97.68   13.49
   1   6  11   65.53    8.09
  -1   6  11   95.81    8.22
   1  -6  11   95.78    9.19
   1  -6  12  562.37   33.61
  -1   6  12  481.23   32.11
   1  -6  12  508.67   39.42
  -1   6  12  487.41   33.36
  -1  -6  12  487.22   32.66
   1   6  12  441.92   32.73
  -1   6  12  484.08   34.90
  -1  -6  12  545.04   32.92
   1   6  12  523.40   34.53
   1   6  13  615.66   40.08
  -1   6  13  601.99   39.09
  -1  -6  13  597.78   38.15
  -1   6  13  501.12   39.72
  -1  -6  13  642.30   38.38
   1   6  13  534.74   38.64
   1  -6  13  680.74   39.02
  -1   6  13  548.18   37.35
  -1   6  14  177.29   14.96
  -1  -6  14  226.89   15.97
  -1  -6  14  168.75   15.09
  -1   6  14  223.48   17.04
   1   6  14  227.76   18.14
   1   6  14  172.90   16.45
   1  -6  14  189.50   15.58
  -1   6  14  160.37   17.30
  -1   6  15  593.53   41.39
  -1  -6  15  707.51   40.98
   1  -6  15  684.51   40.92
  -1   6  15  607.66   40.39
   1   6  15  618.70   42.65
  -1  -6  15  630.26   40.51
  -1   6  15  521.17   42.21
   1   6  15  620.25   42.41
  -1   6  16  298.54   24.96
   1   6  16  324.83   25.26
  -1   6  16  313.91   23.94
   1   6  16  289.99   24.37
  -1  -6  16  334.40   23.08
  -1  -6  16  334.51   23.06
  -1   6  17   17.59    5.60
  -1  -6  17   20.62    4.74
  -1  -6  17   14.18    4.42
  -1   6  17   24.88    6.91
  -1   6  18   85.12   10.80
  -1  -6  18  100.45    9.78
  -1  -6  18  100.03    9.64
  -1  -6  19  192.65   15.13
  -1   6  19  210.75   17.00
  -1  -6  19  200.89   15.25
  -1  -6  20  176.48   13.94
   1  -6  20  202.28   14.36
   1  -6  21  287.55   19.16
  -1  -6  21  285.52   19.05
  -1   6 -22   50.59    6.91
   1   6 -23   34.24    4.22
  -1   7   0  429.51   37.67
   1   7   0  384.98   29.02
   1   7  -1  107.54   11.85
  -1   7  -1   95.03    9.88
  -1   7  -1   86.25   15.30
   1   7  -2 1162.28   75.17
  -1   7  -2 1218.38   79.68
  -1   7  -2 1146.52   72.34
   1   7  -3  350.14   29.45
   1   7   3  386.67   29.47
  -1   7  -3  355.14   27.19
  -1   7  -3  356.17   31.42
  -1   7   4  240.96   21.05
   1   7   4  235.80   21.96
   1   7  -4  266.34   23.92
  -1   7  -4  245.66   17.11
  -1   7  -4  247.50   21.53
  -1   7  -4  251.29   24.01
  -1   7   4  240.04   19.09
   1   7  -5  231.78   22.47
  -1   7  -5  204.56   20.22
  -1   7   5  214.94   18.29
  -1   7  -5  204.10   15.17
  -1   7   5  208.92   19.43
  -1   7  -5  218.27   21.68
   1   7   5  245.15   21.62
  -1   7   6 3935.09  220.23
  -1   7   6 3519.18  215.71
   1   7   6 3811.27  221.84
  -1   7  -6 3614.75  212.74
   1   7  -6 4025.73  223.32
  -1   7  -7  428.69   28.07
   1   7   7  417.25   35.75
  -1   7   7  458.84   35.03
  -1   7   7  464.37   30.08
   1   7  -7  464.62   36.80
  -1   7   8  300.83   27.29
   1   7   8  333.80   29.66
   1   7   9  288.41   28.22
  -1   7   9  290.19   26.94
   1   7  10  263.23   20.42
   1  -7  10  320.22   26.84
  -1   7  10  259.19   19.67
  -1   7  11  133.59   12.55
  -1   7  11  183.74   13.73
   1   7  11  159.11   14.03
   1   7  11  122.94   11.42
   1  -7  11  151.99   17.93
   1   7  12    3.77    2.89
   1  -7  12   -1.82    3.59
   1   7  12   -5.60    4.81
  -1  -7  12    1.23    2.93
  -1   7  12    2.47    3.79
   1  -7  12    0.65    3.13
  -1   7  12    4.06    3.87
  -1   7  13   32.20    6.63
  -1   7  13   18.24    5.69
  -1  -7  13   35.44    5.36
  -1  -7  13   22.08    4.82
   1  -7  13   14.84    4.55
   1   7  13   26.03    6.59
   1   7  13   26.45    5.39
   1   7  14 1980.76  119.20
  -1   7  14 1777.96  117.90
   1   7  14 1788.40  116.78
  -1  -7  14 1995.29  116.42
  -1  -7  14 2149.50  116.93
   1  -7  14 2071.34  116.74
  -1   7  14 1980.21  118.06
   1   7  15   90.84   11.31
  -1  -7  15   88.06    8.82
  -1   7  15   85.64   10.06
  -1   7  15   64.01    9.68
  -1  -7  15   67.24    8.30
  -1   7  16   46.66    8.14
  -1  -7  16   54.27    7.09
   1   7 -16   65.93   14.40
   1   7  16   49.07    9.33
  -1   7  16   49.94    8.08
  -1  -7  16   48.58    6.78
  -1  -7  17   19.78    4.68
  -1   7  17   11.60    5.10
  -1  -7  17   11.57    3.99
  -1   7  17    3.59    4.47
  -1  -7  18   87.92    9.04
  -1   7  18   77.58   10.07
  -1  -7  19   82.06    7.72
   1  -7  19   66.68    7.34
  -1  -7  20  142.99   11.18
   1  -7  20  138.33   11.17
   1  -7  21   13.61    2.91
  -1   7 -21   10.47    4.45
  -1  -7  21    9.31    2.65
  -1   7 -22  319.58   21.79
   1   7 -22  325.38   21.66
  -1   8   0   17.92    4.47
   1   8   0   27.70    6.21
   1   8   0   18.96    4.51
   1   8  -1  523.81   35.13
  -1   8  -1  471.13   31.66
  -1   8  -1  445.29   29.17
   1   8  -1  422.64   28.80
   1   8  -2  935.38   57.14
   1   8   2  777.92   50.35
   1   8  -2  810.11   48.83
  -1   8  -2  889.13   53.26
  -1   8   2  761.05   49.70
  -1   8  -2  781.20   49.29
  -1   8  -3  593.39   37.79
  -1   8  -3  530.77   32.77
   1   8   3  426.98   33.33
   1   8   3  520.24   39.13
   1   8  -3  608.42   41.20
   1   8  -3  490.34   31.68
  -1   8   3  523.96   33.78
  -1   8  -4   38.96    5.94
   1   8   4   54.00    9.70
  -1   8   4   47.00    7.85
   1   8  -4   55.20   10.98
  -1   8   4   45.03    8.93
  -1   8  -4   64.97    9.89
   1   8  -5    7.91    6.31
   1   8   5    1.80    4.78
  -1   8  -5    4.20    3.29
  -1   8   5    3.05    4.27
  -1   8   5    7.48    5.73
  -1   8  -5    4.60    5.43
   1   8   6  749.78   56.25
  -1   8   6  847.16   55.70
   1   8  -6  780.44   57.00
  -1   8   6  769.63   50.89
  -1   8  -6  853.40   55.66
  -1   8  -6  763.49   47.94
  -1   8  -7  698.54   41.92
   1   8   7  712.77   51.72
  -1   8   7  691.70   49.57
  -1   8  -7  633.04   48.63
   1   8  -7  662.67   50.86
  -1   8   7  650.52   43.64
   1   8   8    8.88    4.16
  -1   8   8    9.40    5.80
   1   8   8   13.29    6.54
  -1   8  -8   21.17    7.01
   1   8  -8   12.05    5.93
  -1   8   8   14.92    4.00
  -1   8   9   -2.01    4.37
  -1   8   9   11.15    4.01
   1   8   9    9.34    4.71
   1   8   9   14.30    7.00
   1   8  -9   18.86    7.43
   1   8  10  454.11   32.49
   1  -8  10  559.70   39.88
  -1   8  10  461.64   31.57
   1   8 -10  439.66   39.12
   1   8  11  426.06   30.96
   1   8 -11  416.50   38.44
  -1   8  11  439.90   30.25
   1  -8  11  476.89   37.39
  -1   8  12    1.75    4.25
   1   8 -12    2.56    5.99
  -1   8  12    1.34    3.31
   1   8  12    6.69    2.93
   1   8  12    7.03    4.87
   1   8 -13  338.88   34.27
  -1   8  13  347.92   25.85
  -1   8  13  302.07   24.20
   1   8  13  358.84   26.84
  -1  -8  13  406.40   24.99
   1   8 -14   96.93   17.07
  -1   8  14   83.74    9.85
  -1  -8  14  106.68    9.85
   1   8  14   86.53   11.71
  -1   8  14   87.89   10.86
  -1   8 -15   27.28    9.84
  -1  -8  15   32.22    5.43
   1   8 -15   41.69   11.43
  -1  -8  15   37.78    5.49
  -1   8  15   30.80    6.16
  -1   8  15   37.22    7.30
   1   8  15   32.93    8.02
  -1  -8  16    4.19    2.99
  -1   8  16   12.58    5.21
   1   8  16    7.88    6.06
  -1   8  16   -3.34    3.83
  -1   8 -16   -5.33    7.45
  -1  -8  16    6.16    3.32
   1   8 -16    2.72    7.21
  -1   8  17  131.78   13.49
  -1  -8  17  154.84   12.19
  -1  -8  17  145.14   11.66
  -1   8  17  112.33   12.07
  -1  -8  18   67.52    7.65
   1  -8  18   76.35    7.92
   1  -8  19   -2.13    2.90
  -1  -8  19    0.52    2.99
  -1  -8  20    4.70    2.66
   1  -8  20    5.21    2.56
  -1   8 -20    3.70    4.10
  -1   8 -21  158.22   12.78
   1   8 -22   26.44    3.90
  -1   8 -22   26.25    3.94
  -1   9   0 1310.12   82.69
   1   9   0 1469.13   83.06
  -1   9  -1 1231.20   75.61
   1   9  -1 1340.98   82.63
   1   9  -1 1259.77   75.41
  -1   9   2 2391.02  142.14
   1   9  -2 2583.84  150.14
   1   9  -2 2413.75  141.10
  -1   9  -2 2531.45  146.22
   1   9   2 2371.38  142.62
  -1   9  -2 2396.13  141.74
   1   9  -3  164.18   20.42
  -1   9   3  193.87   15.54
   1   9   3  213.37   21.55
  -1   9  -3  219.79   19.30
   1   9  -3  164.35   13.61
  -1   9  -3  212.39   15.04
  -1   9   4  216.52   21.95
   1   9   4  206.52   22.66
  -1   9  -4  235.96   21.94
  -1   9  -4  220.51   16.73
   1   9  -4  251.88   25.00
  -1   9   4  236.55   18.55
  -1   9  -5 1021.66   68.36
  -1   9  -5  976.07   60.93
  -1   9   5 1050.46   63.84
   1   9   5  963.68   69.92
  -1   9   5  965.58   68.25
   1   9  -5 1080.84   71.96
   1   9  -6  564.76   44.96
  -1   9   6  541.98   42.73
  -1   9   6  536.03   37.80
   1   9   6  532.34   44.31
  -1   9  -6  566.24   42.60
  -1   9  -6  572.11   35.47
  -1   9   7  416.69   30.59
  -1   9   7  459.58   37.81
  -1   9  -7  410.18   35.95
   1   9   7  492.29   40.23
  -1   9   7  458.54   30.12
  -1   9   7  430.06   31.52
  -1   9  -7  524.40   30.29
   1   9   7  461.16   32.31
   1   9  -7  469.87   39.18
  -1   9  -8  301.10   27.37
  -1   9   8  311.41   28.83
  -1   9  -8  344.38   20.83
  -1   9   8  304.42   21.80
  -1   9   8  267.46   20.60
  -1   9   8  259.81   20.60
   1   9   8  258.77   28.48
   1   9  -8  286.02   28.33
   1   9   9  146.45   19.97
  -1   9  -9  126.82   16.61
  -1   9   9  140.32   12.61
   1   9  -9  129.80   17.82
   1   9   9  116.67   12.98
  -1   9   9  147.73   18.89
   1   9  10 1779.12  114.94
   1   9 -10 2091.52  125.01
   1   9  10 2129.14  128.36
  -1   9 -10 1893.14  122.12
  -1   9  10 1903.28  114.08
   1   9 -11  593.57   50.47
   1   9  11  652.55   43.81
  -1   9  11  613.57   42.47
   1  -9  11  751.04   50.84
  -1   9 -11  664.64   50.59
   1   9 -12   12.76    8.14
   1   9  12    5.43    5.08
  -1   9  12   -0.95    4.59
  -1   9 -12    2.34    5.47
  -1   9  13   72.34   10.12
   1   9  13   85.02   10.98
  -1   9 -13   73.82   14.26
   1   9 -13   71.65   15.10
   1   9  14  105.61   13.67
  -1  -9  14  168.30   12.92
  -1   9 -14  139.59   19.33
   1   9 -14  129.69   19.52
  -1   9  14  136.52   13.99
   1   9  15  177.84   16.75
  -1   9  15  139.51   13.00
  -1   9  15  183.79   16.23
  -1  -9  15  192.35   14.39
   1   9 -15  150.22   21.37
  -1   9 -15  129.69   19.72
  -1  -9  16   64.50    7.43
  -1   9  16   51.11    8.78
   1   9  16   45.05    8.85
  -1   9  17  153.63   15.51
  -1  -9  17  199.08   14.48
  -1  -9  18  820.89   49.39
   1  -9  18  783.32   49.37
   1  -9  19   16.71    3.59
  -1  -9  19   15.52    3.64
  -1   9 -19   22.56    5.67
  -1  -9  20   74.85    6.74
  -1   9 -20   89.92    8.72
   1  -9  20   73.36    6.79
  -1   9 -21   40.66    5.22
  -1  10   0 2157.85  126.73
   1  10   0 2143.69  126.72
  -1  10  -1   26.57    5.35
   1  10  -1   23.97    4.95
   1  10  -2  213.36   22.84
  -1  10   2  221.07   16.54
  -1  10  -2  198.71   15.87
  -1  10  -2  188.10   19.03
  -1  10   3 2253.26  132.77
   1  10   3 2264.82  142.43
  -1  10  -3 2119.02  137.42
   1  10  -3 2305.61  142.37
  -1  10  -3 2262.19  131.98
   1  10  -4 1312.29   85.78
  -1  10   4 1253.21   75.90
  -1  10  -4 1252.85   81.48
  -1  10   4 1179.31   82.66
   1  10   4 1155.08   83.94
  -1  10  -4 1213.42   74.18
  -1  10  -5  547.68   43.40
  -1  10  -5  585.89   36.36
   1  10  -5  565.70   46.72
  -1  10   5  537.42   35.70
   1  10   5  463.93   44.26
  -1  10   5  626.75   39.01
  -1  10   5  542.39   44.07
   1  10   6  937.42   67.14
   1  10   6  821.78   57.55
  -1  10   6  841.96   54.78
  -1  10  -6  969.63   55.19
  -1  10   6  888.77   57.56
   1  10  -6  959.50   66.74
  -1  10  -6  852.01   62.70
  -1  10   6  936.56   64.91
  -1  10  -6  894.10   57.42
  -1  10   7    7.48    4.46
  -1  10  -7    3.59    3.01
  -1  10   7    4.46    5.23
  -1  10   7    4.27    3.93
  -1  10  -7   11.73    6.00
   1  10   7    1.10    4.88
  -1  10   7    7.97    3.63
   1  10   7   10.49    7.70
   1  10  -7   11.82    6.94
   1  10   7    2.36    2.87
   1  10   8  545.34   35.32
  -1  10   8  529.91   36.80
  -1  10  -8  590.35   35.48
  -1  10   8  491.70   35.81
   1  10  -8  534.07   44.71
  -1  10   8  578.09   36.30
  -1  10   8  511.24   44.63
   1  10   8  571.52   47.71
  -1  10  -8  567.68   43.46
  -1  10   9  633.26   53.06
   1  10  -9  791.40   55.26
  -1  10   9  673.83   45.24
   1  10   9  705.10   56.55
  -1  10  -9  697.98   51.91
  -1  10 -10  611.49   46.67
   1  10  10  538.66   50.18
  -1  10  10  569.63   39.55
   1  10  10  638.50   41.58
   1  10 -10  562.61   47.56
  -1  10  11  612.30   40.19
  -1  10 -11  556.03   46.39
   1  10 -11  507.46   46.52
   1  10  11  623.90   41.57
  -1  10 -12  628.69   50.87
   1  10  12  662.39   45.01
  -1  10  12  649.93   43.86
   1  10 -12  667.30   53.26
   1  10  13   26.04    7.76
  -1  10  13   20.93    6.31
   1  10 -13   26.39    9.16
  -1  10 -13   38.08   10.42
  -1 -10  14   89.88    8.86
  -1  10 -14   70.09   13.42
   1  10 -14   60.94   13.43
  -1  10  14   54.54    9.51
   1  10  14   64.06   10.18
  -1 -10  15   99.54    9.53
   1  10  15   86.32   11.92
  -1  10  15   90.56   11.15
  -1  10  16  469.25   32.62
   1  10  16  431.13   32.89
  -1 -10  16  464.34   30.23
   1 -10  17  529.65   34.10
  -1  10  17  506.32   35.99
  -1 -10  17  551.11   34.19
   1 -10  18   55.87    6.13
  -1 -10  18   53.68    6.12
   1 -10  19  149.70   11.09
  -1 -10  19  138.51   10.87
   1  10 -20   98.52    8.81
   1  10 -21   -0.32    1.75
  -1  10 -21   -0.33    1.98
  -1  11   0  296.99   21.55
  -1  11  -1  479.23   32.00
  -1  11  -2  263.08   19.57
  -1  11   2  251.49   19.79
   1  11  -2  289.33   27.72
  -1  11   3  265.13   19.76
   1  11   3  218.48   26.60
   1  11  -3  214.89   25.64
  -1  11  -3  251.55   24.08
  -1  11  -3  265.13   19.13
  -1  11  -4  846.99   64.59
  -1  11   4  905.59   67.68
  -1  11  -4  975.76   58.21
   1  11   4  835.83   60.19
  -1  11   4  963.85   58.05
   1  11   4  963.36   70.52
  -1  11   4  993.31   59.82
   1  11  -4  990.58   70.10
  -1  11   5  627.63   41.29
  -1  11   5  591.02   38.85
  -1  11   5  528.80   47.38
  -1  11  -5  611.67   40.66
   1  11   5  588.84   50.00
  -1  11  -5  573.33   46.29
   1  11   5  620.17   38.65
  -1  11  -5  646.33   39.25
   1  11   5  574.34   42.19
   1  11  -5  590.55   49.84
  -1  11   6  137.30   13.01
  -1  11  -6  166.85   13.13
  -1  11  -6  171.39   15.63
  -1  11   6  149.38   14.83
   1  11   6  161.60   16.80
   1  11   6  167.01   13.10
   1  11   6  147.39   21.34
   1  11  -6  196.58   23.82
  -1  11   6  136.79   19.54
  -1  11  -6  129.59   18.11
  -1  11   7  204.37   16.23
   1  11   7  198.57   19.09
   1  11  -7  206.90   24.25
   1  11   7  206.09   25.91
  -1  11   7  191.90   17.72
   1  11   7  190.82   15.48
  -1  11  -7  209.39   18.10
  -1  11   7  198.10   23.91
  -1  11  -7  176.63   21.47
  -1  11  -7  212.71   15.83
   1  11   8    4.16    3.01
   1  11   8   15.24    7.14
  -1  11   8    2.35    3.26
  -1  11  -8    8.33    5.29
   1  11  -8    7.51    7.68
  -1  11   8    2.57    6.44
  -1  11  -8    8.39    5.25
  -1  11   8    4.03    4.55
   1  11   8    1.31    5.78
  -1  11   9  290.16   23.19
   1  11  -9  335.65   31.65
  -1  11  -9  307.87   29.21
  -1  11   9  278.85   30.59
   1  11   9  289.64   33.17
  -1  11  10  416.67   30.60
  -1  11 -10  371.67   35.36
   1  11  10  487.57   43.59
   1  11 -10  438.53   38.63
   1  11 -11  201.45   24.06
  -1  11  11  172.70   16.81
  -1  11 -11  180.67   22.01
   1  11  11  216.76   19.50
  -1  11  12   22.91    6.78
  -1  11 -12   45.30   10.32
   1  11  12   26.76    8.34
   1  11 -12   18.14    7.74
  -1  11  13  197.72   18.08
   1  11  13  213.16   19.21
   1  11 -13  208.55   24.82
  -1  11 -13  172.73   21.81
  -1  11  14   41.92    8.29
  -1 -11  14   47.49    6.46
  -1  11  15   84.43   11.09
   1  11  15   96.91   12.87
  -1  11 -15   98.65   11.94
  -1 -11  15  104.23    9.71
  -1  11  16   76.16    9.93
   1  11  16   54.45    9.91
  -1 -11  16   92.53    8.41
  -1  11 -16   74.25    9.69
   1 -11  16   80.27    8.25
  -1  11  17  116.44   12.19
  -1  11 -17  106.26   11.51
  -1 -11  17  126.68   10.40
   1 -11  17  125.28   10.32
   1  11 -18  211.00   16.25
  -1  11 -18  205.96   16.28
   1 -11  18  210.60   14.74
  -1 -11  18  200.74   14.63
   1 -11  19   27.44    3.73
  -1 -11  19   29.57    3.86
   1  11 -19   38.09    5.22
   1  11 -20   10.75    2.61
  -1  12   0  573.85   37.75
   1  12   1  569.53   37.92
  -1  12  -1  582.05   37.78
   1  12   2  220.46   18.11
  -1  12   2  214.17   17.20
  -1  12  -2  209.29   16.79
   1  12   3   30.16   11.25
  -1  12   3   32.49    6.51
   1  12   3   51.02    8.36
  -1  12   3   50.78   12.28
   1  12  -3   53.70   13.00
  -1  12  -3   47.84    6.73
  -1  12  -3   37.07    6.45
  -1  12  -4  472.75   31.10
  -1  12  -4  457.93   31.97
  -1  12   4  450.50   31.04
  -1  12   4  476.64   32.39
   1  12   4  446.74   30.78
   1  12   4  441.18   42.57
   1  12  -4  475.97   42.40
  -1  12   4  494.96   42.19
  -1  12  -4  446.79   38.49
   1  12   4  458.46   33.94
   1  12  -5   75.90   15.07
   1  12   5   46.64   12.78
  -1  12   5   45.00    8.60
  -1  12   5   34.18    6.01
   1  12   5   41.80    6.02
  -1  12   5   41.27    7.60
  -1  12  -5   30.00    6.57
  -1  12  -5   36.40    9.14
  -1  12   5   35.14   10.64
   1  12   5   31.18    8.48
  -1  12  -5   35.66    6.10
   1  12   6   23.69    8.23
  -1  12  -6   32.16    6.97
   1  12   6   54.06   13.29
   1  12   6   28.93    5.35
  -1  12  -6   29.25    5.53
   1  12  -6   13.79    7.49
  -1  12   6   34.04    6.02
  -1  12   6   27.38    9.51
  -1  12   6   20.39    6.42
  -1  12  -6   28.30    9.37
  -1  12   7  945.73   59.02
   1  12   7  890.23   58.21
   1  12  -7  933.86   59.27
   1  12   7  950.40   73.34
   1  12  -7 1024.73   71.49
  -1  12  -7  957.25   67.50
   1  12   7  952.74   63.19
  -1  12   7  802.95   68.53
  -1  12  -7  981.87   60.50
  -1  12  -7  963.02   58.19
  -1  12   8  309.36   25.30
  -1  12  -8  339.39   30.71
   1  12  -8  301.18   31.95
   1  12   8  322.58   27.45
  -1  12  -8  299.54   24.13
  -1  12   8  353.45   24.06
   1  12   8  253.78   32.55
  -1  12   8  328.48   33.37
   1  12   8  302.86   22.64
  -1  12   9    6.93    5.44
   1  12   9   16.98    7.97
  -1  12   9    5.64    5.61
   1  12   9   11.87    7.78
   1  12  -9   18.07    8.25
  -1  12  -9   12.93    6.90
  -1  12  -9   10.25    5.08
   1  12 -10   79.58   13.92
  -1  12 -10   53.83    8.54
  -1  12 -10   53.96   11.01
  -1  12  10   52.34    9.19
  -1  12 -11   -2.08    5.05
   1  12 -11    2.57    6.82
  -1  12 -11    2.17    5.44
   1  12  11   -2.83    6.63
  -1  12  11    1.17    5.93
  -1  12 -12  217.56   18.92
   1  12  12  231.16   21.17
   1  12 -12  204.99   24.64
  -1  12  12  197.59   18.70
  -1  12 -12  211.84   23.96
  -1  12 -13  292.95   21.73
   1  12  13  228.41   22.22
  -1  12  13  249.25   21.53
   1  12  14   79.49   11.79
  -1  12 -14   77.80   10.50
  -1  12  14   79.03   11.07
  -1 -12  14  103.24    9.35
   1 -12  15  266.71   18.33
  -1 -12  15  289.19   18.46
  -1  12  15  227.67   20.16
   1  12  15  219.90   20.81
  -1  12 -15  219.61   19.59
   1  12  16  116.61   13.74
  -1 -12  16  168.60   11.84
   1 -12  16  136.02   11.23
  -1  12 -16  135.86   13.10
  -1  12  16  126.58   13.35
   1  12 -16  140.68   13.13
  -1 -12  17   59.76    6.07
   1  12 -17   49.03    6.83
   1 -12  17   57.11    5.90
  -1  12 -17   60.03    7.47
   1  12 -18   19.43    4.04
  -1 -12  18   19.78    3.31
   1 -12  18   11.51    2.89
  -1  12 -18   15.99    4.07
   1  12 -19   47.38    5.30
  -1  12 -19   59.85    5.92
  -1  12 -20   35.46    3.64
  -1  13   0  535.46   35.10
   1  13   0  508.71   34.20
   1  13   1  366.18   25.44
  -1  13  -1  337.10   24.93
   1  13   2  918.02   76.95
   1  13   2 1086.42   63.43
  -1  13   2  880.01   61.74
  -1  13  -2 1082.74   62.60
   1  13   3  312.06   23.89
  -1  13   3  299.65   32.81
   1  13   3  232.23   31.66
  -1  13   3  284.63   22.47
  -1  13  -3  298.37   22.58
  -1  13  -3  323.57   22.35
   1  13   4  238.94   31.14
  -1  13  -4  256.07   20.02
   1  13   4  297.53   23.24
  -1  13  -4  251.30   20.73
   1  13   4  271.60   20.23
  -1  13   4  272.35   20.52
  -1  13   4  243.31   29.39
  -1  13   4  282.52   22.83
  -1  13   4  265.57   21.12
  -1  13   5  177.71   16.04
  -1  13  -5  175.09   14.42
  -1  13  -5  170.06   15.43
  -1  13   5  145.35   16.24
  -1  13   5  176.58   14.87
   1  13   5  143.03   23.19
   1  13  -5  146.03   22.00
  -1  13   5  153.79   23.21
   1  13   5  162.16   17.40
   1  13   5  178.17   14.58
  -1  13   6 1884.40  129.06
  -1  13  -6 1940.65  124.37
  -1  13   6 1783.46  117.80
   1  13   6 1940.72  132.61
   1  13   6 1939.22  119.76
  -1  13  -6 1960.66  116.34
   1  13   6 1865.52  114.87
  -1  13   6 2005.95  115.79
  -1  13  -6 1969.05  114.73
   1  13  -6 2051.61  129.76
  -1  13   7  213.99   17.89
  -1  13  -7  232.00   18.99
  -1  13   7  223.26   27.10
  -1  13  -7  202.12   23.44
   1  13   7  266.90   31.77
   1  13   7  230.82   22.42
   1  13  -7  225.47   26.82
   1  13   7  212.84   17.67
   1  13   8  204.05   28.17
  -1  13   8  237.10   27.55
  -1  13   8  182.43   16.83
   1  13  -8  215.65   17.05
   1  13  -8  185.66   24.37
  -1  13  -8  209.36   22.90
  -1  13  -8  242.72   18.52
   1  13   8  203.68   21.04
   1  13   8  177.48   16.11
  -1  13   9  165.45   22.46
  -1  13  -9  129.93   18.13
   1  13  -9  178.09   22.28
   1  13   9  116.58   16.41
  -1  13   9  189.49   17.52
   1  13  -9  157.00   14.03
  -1  13  -9  145.00   14.39
   1  13   9  164.73   24.82
   1  13 -10  113.90   17.81
   1  13 -10  129.32   12.68
   1  13  10   94.97   19.26
  -1  13 -10  135.13   13.18
  -1  13  10  136.59   15.17
  -1  13 -11  202.20   17.39
   1  13 -11  172.06   22.76
   1  13 -11  210.53   17.07
  -1  13  11  183.31   18.42
  -1  13  12    2.41    5.53
   1  13 -12   -0.87    4.15
   1  13  12    5.76    7.09
  -1  13 -12    0.94    4.15
  -1  13 -13   71.83    9.33
   1  13  13   71.25   11.45
   1  13 -13   75.93    9.24
  -1  13  13   66.31   10.37
  -1  13  14 1383.06   91.55
   1  13 -14 1427.40   90.10
   1  13  14 1375.47   92.75
  -1  13 -14 1452.53   90.52
  -1 -13  14 1648.15   89.15
   1 -13  14 1542.95   88.83
  -1 -13  15  162.65   12.67
   1  13 -15  157.74   13.87
  -1  13  15  137.71   14.78
  -1  13 -15  164.05   14.33
   1  13  15  169.49   16.73
   1 -13  15  182.72   13.01
  -1 -13  16   18.22    3.79
   1  13 -16   20.45    4.47
  -1  13  16   16.38    5.74
  -1  13 -16   13.47    4.72
   1 -13  16   18.58    3.62
   1  13  16   18.91    6.84
  -1  13 -17   20.84    4.31
  -1 -13  17   21.07    3.46
  -1  13  17   24.31    5.73
   1 -13  17   17.43    3.16
   1  13 -17   16.33    3.90
  -1  13 -18  116.70    9.34
   1  13 -18  110.07    8.87
  -1  13 -19   34.23    3.71
  -1  14   0   11.55    5.07
   1  14   0   26.06    5.04
  -1  14  -1  510.68   34.87
   1  14   1  455.66   50.16
   1  14   1  535.39   34.71
  -1  14  -2  249.43   19.35
   1  14   2  267.23   20.03
  -1  14   2  243.73   19.59
  -1  14   2  247.63   31.26
   1  14   2  180.89   29.65
  -1  14   3  121.18   13.50
  -1  14   3  121.61   20.72
  -1  14  -3  113.62   11.38
  -1  14   3  115.06   11.98
   1  14   3  125.70   13.27
   1  14   3  157.00   24.49
  -1  14   3  113.85   12.03
  -1  14   4    7.65    4.40
   1  14   4    0.84    3.70
  -1  14  -4    2.57    3.87
   1  14   4   -7.75    7.67
  -1  14  -4    2.38    3.98
   1  14   4    3.46    5.40
  -1  14   4    0.89    3.69
  -1  14   4    6.00    5.51
  -1  14   4    6.66    8.33
   1  14   5   14.41    6.89
  -1  14  -5   10.73    4.67
  -1  14   5   18.01    5.27
   1  14   5   18.36    5.06
  -1  14   5    6.59    6.55
   1  14   5   15.36   10.21
  -1  14   5    6.44    6.18
  -1  14  -6  351.25   26.48
   1  14  -6  357.43   35.97
  -1  14   6  350.10   26.45
  -1  14   6  381.28   29.69
   1  14   6  382.44   26.40
   1  14   6  297.29   37.45
   1  14   6  409.56   30.75
  -1  14   6  334.19   37.27
  -1  14   7  558.18   38.00
  -1  14   7  513.80   49.02
   1  14   7  545.43   52.35
   1  14   7  537.70   41.77
   1  14   7  588.00   37.63
  -1  14  -7  550.36   37.65
  -1  14   7  568.25   40.81
   1  14  -7  542.49   48.03
   1  14  -8   10.40    6.51
  -1  14   8    9.44    4.51
   1  14   8   14.99    8.78
  -1  14   8   -3.12    5.52
  -1  14  -8    9.77    4.46
   1  14   8   13.26    8.43
   1  14  -9   17.56    8.35
   1  14   9   10.07    7.77
   1  14  -9   17.38    4.49
  -1  14  -9   14.91    5.11
   1  14   9   25.70   11.75
   1  14 -10  216.03   24.60
   1  14  10  212.49   22.08
   1  14 -10  209.25   16.58
  -1  14  10  189.23   19.61
  -1  14 -10  201.87   17.03
   1  14 -11   67.43    8.22
  -1  14  11   71.59   11.54
  -1  14 -11   77.55    9.27
  -1  14 -12    5.71    4.33
  -1  14  12    6.13    6.86
   1  14 -12    1.42    3.71
  -1  14 -13  324.81   23.95
  -1 -14  13  371.62   23.00
   1 -14  13  346.93   22.84
   1  14  13  331.05   27.59
   1  14 -13  313.55   23.18
  -1  14  13  270.81   25.19
   1  14  14   82.26   12.07
   1 -14  14   95.91    8.42
  -1 -14  14   96.33    8.61
  -1  14  14   74.08   10.71
  -1  14 -14   88.05    9.53
   1  14 -14   83.71    8.85
  -1 -14  15   67.63    6.87
  -1  14  15   62.09    9.15
  -1  14 -15   83.76    8.33
   1  14  15   76.81   10.89
   1 -14  15   77.60    7.12
   1  14 -15   59.98    7.10
   1 -14  16   -0.38    1.96
  -1  14 -16   -1.56    2.79
   1  14  16    0.92    5.09
  -1  14  16    0.78    4.00
  -1 -14  16   -0.39    2.11
   1  14 -16    3.82    2.63
  -1  14 -17    3.15    2.42
   1  14 -17    1.48    1.78
  -1  14 -18   30.29    3.46
   1  15   0  779.22   70.73
  -1  15   0  736.14   49.26
   1  15   0  791.88   48.44
  -1  15  -1    9.32    5.04
  -1  15   1   11.37    5.09
  -1  15   1   11.92   10.55
   1  15   1    4.56    8.08
   1  15   1    1.51    3.72
   1  15   2  982.31   62.02
  -1  15   2 1075.29   63.38
   1  15   2  839.32   79.26
  -1  15   2  886.42   77.36
  -1  15   3    1.07    5.17
   1  15   3    6.48    4.02
  -1  15   3    7.38    9.23
  -1  15   3    2.91    4.46
   1  15   3    2.87    4.56
  -1  15   4  142.07   12.90
  -1  15   4  112.64   13.49
   1  15   4  101.67   12.57
   1  15   4  113.83   11.85
   1  15   4   71.95   17.92
  -1  15   4  111.45   20.37
   1  15   5   15.21    4.76
   1  15   5   13.46    6.27
   1  15   5   20.61   10.97
  -1  15  -5   12.58    4.26
  -1  15   5   21.61    7.16
  -1  15   5   22.04    6.05
  -1  15   5    6.98    6.96
  -1  15   6   56.76    8.53
  -1  15  -6   62.63    7.76
   1  15   6   33.89    6.89
   1  15   6   50.54   10.20
  -1  15   6   54.30   14.03
  -1  15   6   63.65   10.93
   1  15   6   24.19   11.61
  -1  15   7   19.66    9.20
  -1  15   7    5.65    7.12
  -1  15  -7   14.22    4.44
   1  15   7   17.61    5.35
   1  15   7   20.85    7.84
   1  15   7   11.79    8.55
  -1  15   7   15.46    5.12
   1  15   8   68.48   16.07
  -1  15   8   70.62   12.08
   1  15   8   49.02   10.99
  -1  15  -8   48.12    7.09
   1  15   9   -1.62    7.70
  -1  15  -9    0.76    3.68
   1  15  10  903.43   61.25
  -1  15 -10  880.76   55.46
  -1  15 -11    0.71    3.48
   1  15 -11   -2.21    3.20
  -1  15  11    1.31    6.74
   1  15  11    7.68    8.26
  -1  15  12    1.21    6.84
   1  15 -12    6.80    3.08
  -1  15 -12    4.01    3.61
  -1  15  13   -3.27    6.09
  -1  15 -13    0.62    3.08
   1  15 -13   -0.95    2.65
  -1 -15  13    8.73    3.18
   1 -15  13   -1.01    3.06
   1  15  14    8.13    6.94
  -1  15  14   23.07    6.47
  -1  15 -14   16.35    4.02
   1  15 -14   13.37    3.10
   1 -15  14   10.58    3.20
  -1 -15  14   16.23    3.52
  -1  15  15    0.83    4.32
   1 -15  15    0.37    2.03
  -1 -15  15    0.38    2.03
   1  15  15   -1.99    5.64
  -1  15 -15   -1.36    2.77
   1  15 -15    0.31    1.84
  -1  15  16    0.67    3.91
  -1  15 -16    5.07    2.25
  -1  16   0   -1.51    4.18
  -1  16   0    4.28    7.58
   1  16   0    4.82    9.53
   1  16   1   14.37   10.43
   1  16  -1   28.72   13.43
  -1  16  -1   17.43    4.70
   1  16   1   17.31    4.63
  -1  16   1   29.72    6.07
  -1  16   1    4.15    9.06
  -1  16   2   19.82    5.94
  -1  16   2   12.07    8.73
  -1  16  -2    9.01    3.73
   1  16   2    7.14    4.36
   1  16   2   16.08    5.72
   1  16   2    4.72   10.24
  -1  16   2    5.42    5.09
  -1  16   3 1617.23   94.46
  -1  16   3 1579.37   94.44
  -1  16  -3 1483.48   91.12
   1  16   3 1556.95   93.33
   1  16   3 1463.93  115.23
  -1  16   3 1292.58  108.69
   1  16   3 1573.42   94.06
   1  16   4   -0.98    5.16
  -1  16   4    3.75    6.64
  -1  16   4   14.14    6.32
   1  16   4   11.38    5.12
  -1  16   4   12.04    5.48
   1  16   4    8.90   10.42
   1  16   5  149.97   25.69
   1  16   5  137.78   13.80
  -1  16   5  147.63   14.58
  -1  16   5  150.68   23.55
   1  16   5  134.14   14.61
  -1  16   5  188.38   16.63
  -1  16   6   21.61    5.65
   1  16   6   12.77    4.74
   1  16   6   28.83   12.12
   1  16   6   18.04    7.21
  -1  16   6   17.79    7.26
  -1  16  -7    9.99    3.81
  -1  16   7   14.45    5.16
   1  16   7   15.69    6.88
  -1  16   7   16.09    8.16
  -1  16  -8    2.45    3.20
  -1  16   8   -1.38    6.44
   1  16   8    1.39    6.75
  -1  16  -9  414.28   29.09
   1  16   9  546.01   36.27
   1  16  10   10.06    7.77
  -1  16 -10   12.52    3.69
  -1  16 -11  543.91   35.26
   1  16  11  598.25   41.34
  -1  16  12    2.24    6.28
   1  16  12    1.31    6.65
  -1  16 -12    2.44    2.80
  -1  16  13   11.95    6.16
  -1 -16  13   18.73    3.48
   1 -16  13   11.04    3.12
  -1  16 -13   15.72    3.42
  -1  16 -14    2.74    2.08
  -1  16  14    0.86    4.74
   1 -16  14    1.44    1.93
  -1 -16  14   -0.74    1.99
  -1  16 -15   36.84    3.80
  -1  16  15   53.31    7.10
  -1  17   0  103.20   10.20
   1  17   0   80.14   21.20
  -1  17   1   -2.14    4.91
   1  17   1   -3.08    4.63
   1  17   1    1.96    3.11
  -1  17  -1    1.91    2.99
  -1  17   1    0.75    4.09
   1  17   2  539.70   35.84
  -1  17   2  528.46   34.55
  -1  17  -2  480.63   32.65
  -1  17   2  549.55   36.39
   1  17   2  482.84   33.45
   1  17   3   47.71    7.20
   1  17   3   39.00    7.34
  -1  17   3   42.18    7.65
  -1  17   3   48.58    7.67
   1  17   4  462.10   32.38
  -1  17   4  460.94   32.56
  -1  17   4  463.80   32.89
   1  17   4  456.46   31.80
  -1  17   5    6.24    4.95
   1  17   5   -0.93    4.02
  -1  17   5    0.99    4.72
   1  17   5    6.48    4.78
  -1  17   6   14.52    6.70
  -1  17   6    6.74    5.33
   1  17   6    5.02    4.71
   1  17   6    1.78    3.53
  -1  17   7   28.15    7.61
   1  17   7   33.38    7.46
  -1  17   8   16.91    6.91
   1  17   8   18.15    7.09
   1  17   9   19.91    7.51
  -1  17   9   25.21    7.98
   1  17  10  623.83   43.29
   1  17  11    1.15    6.52
   1  17  12   74.30   10.63
   1 -17  12   67.78    6.46
  -1 -17  12   66.79    6.44
   1  17  13   26.01    6.86
  -1 -17  13   30.29    3.74
   1 -17  13   23.37    3.33
  -1  17  13   20.38    6.00
  -1  17  14    2.10    3.92
  -1  17  15    2.60    3.06
   1  18   0    9.41    4.86
  -1  18   0    4.17    3.26
  -1  18   0    5.99    5.08
   1  18   1  113.68   11.94
  -1  18   1   91.29    9.60
  -1  18   1  111.07   11.97
  -1  18  -1   99.09    9.24
   1  18   2    6.53    3.49
  -1  18   2    6.97    5.22
  -1  18   2    3.49    3.72
   1  18   2    2.79    4.52
  -1  18   3  111.07   11.90
   1  18   3  108.75   11.74
  -1  18   3  119.38   11.17
   1  18   3   99.02   10.09
  -1  18   4   50.00    7.46
  -1  18   4   49.31    7.87
   1  18   4   38.32    6.21
   1  18   4   43.75    7.24
  -1  18   5   16.84    5.36
  -1  18   5   11.20    4.88
   1  18   5   15.60    4.80
   1  18   5   12.87    4.56
  -1  18   6   18.22    5.99
   1  18   6   23.59    5.86
   1  18   7  279.32   22.31
  -1  18   7  334.26   23.79
   1  18   8  113.04   11.97
  -1  18   8  116.65   12.51
   1  18   9   18.39    6.15
  -1  18   9   30.58    7.10
   1  18  10   15.68    5.97
  -1  18  10   12.86    5.92
  -1 -18  11   43.46    4.79
   1  18  11   49.18    7.78
   1 -18  11   43.18    4.74
   1  18  12   22.06    6.04
  -1  18  14    2.75    2.84
   1  19   0  215.08   16.65
  -1  19   0  210.73   16.98
  -1  19   0  187.23   14.36
   1  19  -1   29.48    5.49
  -1  19   1   13.94    5.04
  -1  19   1   17.94    4.02
  -1  19  -1   27.29    6.03
   1  19   1   29.94    5.76
  -1  19   2  446.21   30.36
   1  19   2  435.97   29.59
   1  19  -2  450.69   29.37
  -1  19   2  395.74   27.79
  -1  19   3    5.24    4.01
   1  19   3    1.56    4.02
  -1  19   3   -4.16    3.53
   1  19   4  161.04   13.77
   1  19   4  132.29   11.82
  -1  19   4  186.00   14.89
  -1  19   4  163.89   13.14
  -1  19   5   19.75    4.78
   1  19   5   18.41    4.29
  -1  19   6  865.53   53.12
   1  19   6  840.20   52.21
  -1  19   7    3.49    4.32
   1  19   7    2.91    3.30
  -1  19   8  102.15   10.18
   1  19   8   97.51    9.51
  -1  19   9    8.79    4.50
   1  19   9    8.08    3.98
   1  19  10   57.87    6.96
  -1  19  10   62.44    7.59
   1  19  11    4.85    3.21
  -1  19  11   13.14    4.19
  -1  19  12    1.86    2.97
   1  20   0  266.35   18.65
  -1  20   0  253.73   19.10
  -1  20   1  382.94   25.51
  -1  20  -1  385.55   25.24
   1  20  -1  357.65   24.43
   1  20   1  342.48   24.45
  -1  20   2   16.70    3.33
  -1  20  -2   25.60    5.02
   1  20   2   17.41    4.27
  -1  20   2   30.01    5.40
   1  20  -2   23.56    4.45
   1  20   3    4.44    3.00
  -1  20   3    4.01    2.64
  -1  20   3    2.76    3.57
   1  20  -3    4.57    2.81
   1  20  -4  174.15   12.34
  -1  20   4  141.62   11.55
   1  20  -5   84.99    7.53
  -1  20   5   76.31    7.49
  -1  20   6   21.47    3.90
  -1  20  -6   13.91    3.39
  -1  20  -7  451.46   25.28
  -1  20   7  451.35   25.55
  -1  20  -8  122.99    9.26
  -1  20   8  116.03    9.69
  -1  20  -9   37.69    4.11
  -1  20   9   34.77    4.61
   1  20 -10   11.62    2.14
  -1  20 -10   15.20    2.34
  -1  21   0  399.16   25.02
   1  21   0  371.17   24.10
   1  21   1  162.02   12.06
   1  21  -1  168.04   12.14
  -1  21  -1  174.72   12.79
  -1  21   1  191.98   13.21
   1  21  -2   84.93    7.20
  -1  21  -2   87.81    7.74
  -1  21  -3   99.10    8.10
   1  21  -3   91.80    7.54
   1  21  -4   14.22    2.60
   1  21  -5  140.90    9.88
   1  21  -6   14.14    2.30
  -1  22  -2   68.27    5.42
   2   0   0 1069.82   62.52
   2   0   0 1078.50   63.10
   2   0  -1    0.82    1.56
   2   0  -1    0.45    1.50
   2   0   2 2206.24  131.62
   2   0  -2 2225.05  127.18
   2   0   3    4.40    4.55
   2   0   3    3.55    2.73
   2   0   4  467.25   31.19
   2   0   4  464.48   33.06
   2   0   5   -0.83    3.54
  -2   0   5    3.08    3.61
   2   0   5   -1.15    4.31
   2   0   6  652.62   42.40
  -2   0   6  609.72   41.17
   2   0   7    2.30    3.95
   2   0   8 1496.62   87.11
   2   0   8 1579.57   94.75
  -2   0   8 1490.20   87.15
  -2   0   9    1.95    1.75
   2   0   9    1.57    4.81
   2   0   9    2.54    1.78
  -2   0  10 2133.91  123.41
   2   0  10 2161.98  133.03
   2   0  10 2107.78  123.35
   2   0  11    6.30    2.27
  -2   0  11    5.01    2.30
  -2   0  12   17.80    4.78
  -2   0  12   17.53    3.94
   2   0  12   15.53    5.63
   2   0  12   16.43    3.84
   2   0  13    3.64    5.87
  -2   0  13    2.45    2.87
  -2   0  13    0.89    3.85
   2   0  13    4.34    3.06
  -2   0  14   15.77    5.31
   2   0  14   14.21    4.15
   2   0  14    8.92    6.12
  -2   0  14   14.45    4.16
   2   0  15    1.29    6.46
   2   0  15    8.75    3.73
  -2   0  15    8.34    3.16
  -2   0  15   -1.91    4.48
  -2   0  16   12.85    4.72
  -2   0  16    1.92    4.50
   2   0  16    2.52    6.41
   2   0  16    6.04    4.19
   2   0  17   10.87    4.34
  -2   0  17    8.22    3.59
  -2   0  17    4.70    5.08
   2   0  18  373.74   27.89
  -2   0  18  404.79   28.24
  -2   0  18  390.41   27.45
   2   0  19   -0.86    4.14
  -2   0  19    0.75    3.59
  -2   0  19    1.64    4.47
  -2   0  20  291.37   19.87
  -2   0  20  236.90   18.60
   2   0  20  247.53   19.25
  -2   0  21   -2.43    3.91
   2   0  21    4.88    2.75
  -2   0  21    3.28    2.56
  -2   0  22    4.57    2.56
   2   1   0   18.82    3.18
   2   1   0   15.13    2.86
   2   1   0   16.06    2.83
   2   1  -1   10.49    1.99
   2   1  -1    8.85    3.35
   2   1   1    8.51    2.66
   2   1  -1    4.29    2.61
   2  -1  -1   10.17    1.73
   2   1   1   10.73    3.03
   2   1   2 1099.66   62.18
   2   1   2  933.86   63.21
   2  -1   3 1463.79   92.21
   2   1   3 1476.10   90.05
   2  -1   3 1609.78   91.10
   2   1   3 1510.13   92.30
   2  -1   4  152.31   14.65
   2   1   4  144.40   15.24
   2   1   4  160.69   13.37
   2  -1   4  185.73   14.71
  -2   1   5  690.04   44.86
   2  -1   5  603.65   42.79
   2  -1   5  614.72   42.21
   2   1   5  646.55   41.53
  -2   1   6 1317.52   82.41
   2  -1   6 1410.01   82.06
   2  -1   6 1309.85   81.69
   2   1   6 1378.03   80.59
  -2  -1   6 1220.95   76.69
   2  -1   7  230.79   19.62
   2   1   7  196.09   18.23
  -2   1   8  146.81    9.67
   2   1   8  141.53   14.86
   2   1   8  133.48    9.48
   2  -1   8  115.02   14.55
   2  -1   8  135.63    9.72
  -2  -1   8  132.34    9.73
   2  -1   9  378.60   24.57
  -2  -1   9  383.82   24.61
   2   1   9  416.70   24.49
  -2   1   9  384.33   24.39
   2  -1   9  387.35   31.85
   2   1  10  983.92   58.13
   2  -1  10  963.49   67.18
  -2  -1  10  953.97   58.36
  -2   1  10  974.50   58.15
   2  -1  10 1001.18   58.50
  -2  -1  11  940.45   57.16
   2  -1  11  984.55   57.27
   2  -1  11  920.71   66.58
   2   1  11  963.42   56.87
  -2   1  11  910.66   56.74
  -2  -1  12   27.36    5.43
  -2  -1  12   26.06    4.78
   2  -1  12   29.60    6.62
   2  -1  12   26.70    4.84
  -2   1  12   45.21    5.15
   2   1  12   22.55    4.27
   2  -1  13   94.51    9.45
  -2  -1  13   86.50   10.22
   2  -1  13  100.66   12.24
  -2   1  13  100.44    9.24
  -2  -1  13   87.73    9.13
   2   1  13  106.98    9.34
   2  -1  14  342.28   24.21
  -2  -1  14  266.13   21.11
   2  -1  14  269.82   20.36
   2   1  14  254.98   19.65
  -2   1  14  277.36   20.00
  -2  -1  14  267.06   20.08
   2  -1  15   -3.52    5.29
  -2  -1  15    9.92    3.38
  -2   1  15    8.16    3.78
  -2  -1  15    1.85    3.75
   2   1  15    1.53    3.18
   2  -1  15    6.58    4.12
   2  -1  16    4.57    5.63
   2   1  16    2.55    3.68
  -2  -1  16   -0.80    3.86
  -2  -1  16    5.58    4.93
  -2   1  16    2.42    3.70
   2  -1  16    7.02    3.81
   2   1  17  288.01   22.72
  -2   1  17  294.95   22.49
  -2  -1  17  359.75   23.86
   2  -1  17  260.12   22.27
  -2  -1  17  315.09   22.47
  -2  -1  18  260.35   18.68
   2  -1  18  213.65   18.53
   2   1  18  243.42   19.37
  -2  -1  18  240.21   19.09
  -2   1  18  230.66   18.49
   2   1  19    0.88    4.68
  -2  -1  19    0.72    3.61
  -2   1  19   -0.78    4.04
  -2  -1  19    3.20    3.68
   2  -1  19   -0.81    4.20
   2   1  20   13.18    4.56
  -2  -1  20   23.55    4.52
  -2   1  20   14.35    4.14
  -2  -1  20   22.51    5.01
   2  -1  20   20.00    4.84
  -2  -1  21   67.22    6.95
  -2  -1  21   71.43    7.78
   2   1  21   67.12    7.52
  -2   1  21   60.45    6.90
   2  -1  21   78.56    7.65
  -2  -1  22  133.52   10.60
   2  -1  22  149.19   11.02
   2   2   0  156.05   11.94
   2   2   0  152.91   12.48
   2   2  -1  427.37   27.27
   2   2  -1  389.49   26.70
   2   2   1  435.22   27.29
   2   2   2  229.30   17.66
   2   2  -2  226.23   16.38
   2   2  -2  244.26   18.48
  -2   2   2  257.87   15.23
   2   2  -3    9.26    2.36
  -2   2   3    8.61    1.94
   2  -2   4 2428.53  148.20
   2   2  -4 2489.16  143.25
  -2   2   4 2604.56  152.17
   2  -2   5  358.53   25.71
  -2   2   5  343.47   30.16
   2  -2   5  330.08   24.55
   2   2  -5  309.45   19.13
  -2   2   6    3.52    7.30
   2  -2   6    5.02    4.85
   2  -2   6    5.31    3.99
   2  -2   7   51.00    8.57
   2  -2   7   56.20    9.54
  -2  -2   8  492.08   30.60
   2  -2   8  482.84   30.61
  -2   2   8  493.55   30.12
   2   2   8  506.65   30.14
   2  -2   8  556.70   38.68
   2  -2   9   22.28    7.14
  -2  -2   9   34.93    4.40
   2   2   9   24.71    3.52
  -2   2   9   31.39    3.71
   2  -2   9   28.05    4.18
   2  -2  10 1454.39   98.28
   2   2  10 1540.46   88.89
   2  -2  10 1537.80   89.59
  -2  -2  10 1498.24   89.39
  -2   2  10 1515.12   88.91
  -2  -2  11  273.21   19.73
   2  -2  11  271.93   19.81
   2  -2  11  266.04   27.06
  -2   2  11  303.44   19.44
   2   2  11  305.63   19.36
   2   2  12  341.77   29.89
  -2   2  12  444.94   27.45
   2  -2  12  423.03   28.05
   2  -2  12  440.25   30.61
   2   2  12  445.49   27.35
  -2  -2  12  434.02   29.24
   2  -2  12  403.02   36.29
  -2   2  12  424.60   30.42
  -2  -2  12  397.34   27.66
   2  -2  13    0.69    3.55
  -2   2  13    3.41    2.98
   2   2  13   -1.22    4.96
  -2  -2  13    4.08    3.96
   2   2  13    3.36    2.94
   2  -2  13    4.15    5.03
  -2  -2  13    5.77    3.36
  -2   2  13    8.07    4.81
   2   2  14  131.63   11.60
   2  -2  14  134.50   12.22
  -2   2  14  140.18   11.69
  -2   2  14  120.12   13.41
  -2  -2  14  134.73   12.04
  -2  -2  14  128.33   12.71
   2   2  14  126.00   15.18
   2  -2  14  139.03   14.27
   2   2  15  122.87   15.09
  -2  -2  15  110.93   11.00
   2   2  15  115.27   10.86
   2  -2  15  102.55   11.09
   2  -2  15  107.16   12.53
  -2   2  15   97.32   12.13
  -2  -2  15  114.16   11.82
  -2   2  15  132.64   11.37
   2   2  16  612.10   43.18
  -2   2  16  620.91   44.64
   2  -2  16  746.24   45.65
  -2  -2  16  691.94   44.27
   2   2  16  739.04   48.34
  -2   2  16  653.34   43.32
  -2  -2  16  670.04   43.33
   2  -2  16  678.19   43.97
   2   2  17   46.05    7.53
  -2  -2  17   57.78    7.75
  -2   2  17   38.30    7.08
  -2  -2  17   51.46    7.98
   2  -2  17   52.66    7.87
  -2   2  17   48.94    8.65
  -2   2  18  217.09   17.79
  -2  -2  18  245.43   18.51
   2   2  18  198.18   17.87
   2  -2  18  195.88   17.50
  -2   2  18  256.37   19.34
  -2  -2  18  239.22   17.68
  -2   2  19   40.53    6.62
  -2  -2  19   35.69    5.84
  -2  -2  19   37.08    6.38
   2  -2  19   30.73    6.05
   2   2  19   29.27    6.53
  -2  -2  20    1.35    3.59
   2   2  20   -0.78    4.44
  -2   2  20   -0.70    3.69
   2  -2  20   -1.34    3.40
  -2  -2  20    6.04    3.46
   2  -2  21    5.49    3.20
  -2   2  21    6.71    3.71
  -2  -2  21    7.07    3.14
  -2  -2  21    2.25    3.16
  -2   2 -22    0.68    4.11
  -2  -2  22    1.56    2.20
   2  -2  22    0.41    2.41
   2   3   0    6.01    3.12
  -2   3  -1 1425.61   85.84
   2   3  -1 1600.68   89.72
   2   3   1 1720.87   89.87
   2   3  -2   -0.81    3.51
  -2   3   3 4460.95  245.41
  -2   3   3 3859.17  253.23
   2   3  -3 4048.70  250.20
  -2   3   4   27.41   11.67
  -2   3   4   21.76    3.70
  -2   3   5 3269.88  186.50
   2  -3   5 2874.23  173.74
  -2   3   5 3058.10  171.04
   2   3   5 2677.55  173.94
  -2   3   6   32.74   12.46
   2  -3   6   31.69    6.16
   2   3   6   35.62    7.04
   2  -3   7   16.78    5.18
   2  -3   7   20.16    6.93
   2   3   8   23.16    3.18
   2  -3   8   30.22    8.51
  -2   3   8   24.50    3.18
  -2   3   9 2260.52  128.70
   2   3   9 2339.20  128.72
   2  -3   9 2115.29  129.43
   2  -3   9 2381.87  139.17
  -2  -3   9 2112.57  129.24
   2  -3  10   38.28   10.27
   2  -3  10   48.71    5.95
  -2  -3  10   44.82    5.66
   2   3  10   53.93    5.26
  -2   3  10   53.38    5.21
  -2  -3  11 2312.96  136.90
  -2   3  11 2389.35  136.26
   2  -3  11 2278.43  146.55
   2   3  11 2417.27  136.23
   2  -3  11 2249.66  137.11
   2  -3  12   10.05    4.64
   2   3  12   15.99    3.70
   2   3  12   16.62    5.48
   2   3  12   15.46    5.05
  -2  -3  12   16.32    4.43
   2  -3  12   10.88    3.92
  -2   3  12   17.97    5.97
   2  -3  12   21.36    8.06
  -2   3  12   15.25    3.58
  -2  -3  12   12.29    3.72
   2   3  13  185.01   15.43
   2   3  13  139.17   15.21
  -2  -3  13  133.40   13.20
   2   3  13  161.77   12.45
   2  -3  13  153.28   14.70
   2  -3  13  180.03   20.80
  -2   3  13  173.65   15.97
   2  -3  13  148.99   13.10
  -2  -3  13  149.26   12.85
  -2   3  13  154.23   12.37
  -2   3  14   24.38    6.69
  -2  -3  14   25.08    5.21
  -2  -3  14   27.53    5.92
   2   3  14   38.49    8.41
  -2   3  14   29.88    5.25
   2  -3  14   32.50    6.01
   2   3  14   24.35    5.12
   2  -3  14   24.22    6.02
  -2  -3  15  342.56   23.96
  -2   3  15  326.28   25.22
  -2  -3  15  328.81   23.15
  -2   3  15  326.07   22.93
   2  -3  15  285.22   22.99
   2   3  15  265.32   25.66
   2   3  15  329.74   22.96
   2  -3  15  325.86   24.44
  -2  -3  16   -1.52    3.87
  -2   3  16    3.23    3.98
  -2   3  16   -1.08    5.24
  -2  -3  16    8.71    5.23
   2  -3  16   -1.71    4.59
   2   3  16    6.54    4.63
  -2  -3  17 1447.20   86.30
   2  -3  17 1404.08   86.70
  -2  -3  17 1473.13   87.05
  -2   3  17 1480.07   88.32
   2   3  17 1348.82   86.77
  -2   3  17 1412.19   86.80
   2   3  18    9.07    4.62
   2  -3  18    9.59    4.37
  -2  -3  18    4.06    4.20
  -2   3  18    1.91    4.79
  -2   3  18   11.05    4.94
  -2  -3  18    5.02    3.83
   2  -3  19  247.60   18.47
  -2  -3  19  278.82   19.13
  -2   3  19  245.25   19.37
  -2  -3  19  264.08   18.40
  -2   3  19  218.24   18.43
   2   3  19  214.18   18.75
  -2  -3  20    6.39    3.67
  -2   3  20    5.10    4.03
  -2  -3  20   -0.57    2.78
   2  -3  20    3.11    3.17
  -2   3  21   41.08    5.96
  -2   3 -21   39.94    7.27
  -2  -3  21   34.77    4.84
  -2  -3  21   49.89    5.88
   2  -3  21   33.08    4.86
  -2  -3  22    0.73    2.07
  -2   3 -22    4.13    3.95
   2  -3  22    0.38    2.24
   2   4   0 1861.14  110.88
  -2   4  -1  224.02   14.38
   2   4  -1  237.04   18.23
   2   4  -2 1624.12   98.92
  -2   4   3  144.18   11.19
   2   4  -3  110.17   13.84
   2   4  -4 6978.83  412.20
  -2   4   4 7124.89  405.82
  -2   4   4 6974.40  424.08
   2   4   5  339.05   27.20
  -2   4   5  353.50   24.48
  -2   4   5  387.63   40.76
  -2   4   6  152.99   23.49
   2   4   6  121.58   13.82
   2  -4   6  113.79   12.20
  -2   4   6  114.72   11.08
   2  -4   7  226.62   18.78
  -2   4   7  230.84   14.43
   2   4   7  179.35   19.88
   2   4   7  212.05   14.19
   2  -4   8 1006.96   64.29
   2   4   8 1005.69   59.57
  -2   4   8 1018.58   59.69
   2  -4   8 1016.21   68.99
  -2   4   9    9.88    2.85
   2  -4   9   13.11    6.66
   2   4   9   15.62    3.03
  -2  -4  10 2121.04  127.09
   2  -4  10 2043.93  127.30
   2  -4  10 2229.91  137.45
  -2   4  10 2196.87  126.50
   2   4  10 2302.06  126.57
   2  -4  11  333.40   22.23
  -2   4  11  286.20   19.37
   2  -4  11  273.97   20.21
   2   4  11  286.78   19.34
  -2   4  11  313.37   24.02
   2  -4  11  269.74   27.37
   2   4  11  283.99   21.14
   2   4  11  294.20   21.68
  -2  -4  11  265.68   19.75
  -2   4  12 1183.16   71.78
   2   4  12 1259.04   71.93
  -2  -4  12 1182.50   72.39
   2   4  12 1321.50   75.07
  -2   4  12 1217.43   76.25
   2  -4  12 1159.57   72.73
   2  -4  12 1152.68   81.41
  -2  -4  12 1160.16   73.17
   2  -4  12 1295.55   74.75
   2   4  12 1107.76   73.88
   2  -4  13    2.17    4.71
   2   4  13    2.01    4.54
   2   4  13   -0.98    4.34
  -2   4  13    6.99    5.74
   2  -4  13    5.29    4.27
  -2   4  13    0.58    2.56
  -2  -4  13    0.77    3.32
   2   4  13    1.71    2.47
  -2  -4  13    1.28    3.00
   2  -4  13    0.72    3.47
  -2   4  14   15.34    5.93
   2  -4  14   10.98    6.16
   2   4  14    9.68    3.65
  -2  -4  14    8.92    4.10
   2   4  14    8.09    5.34
  -2  -4  14    9.66    4.42
   2   4  14    4.24    5.24
   2  -4  14    3.83    3.81
   2  -4  14   10.74    4.91
  -2   4  14   15.10    4.02
  -2   4  15  127.44   11.50
   2  -4  15  115.08   11.64
  -2   4  15  122.54   13.85
   2   4  15  125.36   11.44
  -2  -4  15  131.77   11.57
   2   4  15  100.93   13.86
  -2  -4  15  122.06   12.09
  -2   4  16 1317.37   79.82
  -2   4  16 1388.83   82.53
  -2  -4  16 1299.33   80.04
   2  -4  16 1306.95   79.93
   2   4  16 1244.97   79.55
  -2  -4  16 1317.74   79.39
  -2  -4  17   29.95    5.85
   2  -4  17   27.47    5.99
   2   4  17   22.28    5.87
  -2   4  17    9.22    5.14
  -2   4  17   21.23    6.57
  -2  -4  17   32.67    6.14
  -2  -4  18  409.86   27.80
  -2  -4  18  382.14   26.94
  -2   4  18  437.49   29.37
   2  -4  18  452.66   28.10
   2   4  18  369.26   27.90
  -2   4  18  350.48   27.41
  -2   4  19   39.79    7.26
  -2  -4  19   37.22    6.13
  -2  -4  19   33.06    5.49
   2  -4  19   42.43    6.13
  -2   4  20  122.06   11.35
  -2  -4  20  102.27    9.84
   2  -4  20  127.37   10.59
  -2  -4  20  129.54   10.77
  -2   4  21   15.32    4.23
   2  -4  21   14.98    3.55
  -2  -4  21   12.00    3.17
  -2   4 -21   17.46    5.62
  -2  -4  21   19.99    4.00
  -2   4 -22   44.81    6.60
   2   5   0  122.04   12.26
  -2   5  -1   49.15    4.92
   2   5  -1   73.30    8.79
  -2   5   1   54.89   12.22
  -2   5  -2 1934.39  115.88
   2   5  -2 2023.68  120.86
  -2   5   2 2204.79  131.74
   2   5  -3 1026.68   67.56
  -2   5   4   17.22   16.15
  -2   5   4    5.35    3.03
   2   5   4   11.03    4.48
   2   5  -4   -3.23    5.71
   2   5   5 1311.54   86.82
  -2   5   5 1404.61   84.08
   2   5  -5 1308.19   89.44
   2   5   6 3272.47  180.04
   2   5   6 2945.00  170.50
  -2   5   6 2965.05  170.58
  -2   5   6 2909.16  175.00
   2   5   7  359.95   23.21
   2   5   7  382.28   31.50
  -2   5   7  321.78   26.94
   2  -5   7  380.61   27.71
  -2   5   7  401.78   23.52
   2  -5   8   36.41    6.50
   2   5   8   34.32    4.11
   2  -5   8   44.16   10.50
   2   5   8   47.79    9.98
  -2   5   8   37.51    4.19
   2  -5   9  193.04   21.57
  -2   5   9  210.99   14.66
   2   5   9  216.75   14.65
   2   5  10 1477.62   85.67
   2  -5  10 1436.13   95.79
  -2   5  10 1437.36   85.64
   2  -5  11  981.85   59.59
   2  -5  11 1006.84   69.02
   2   5  11  924.31   59.43
  -2   5  11  954.37   58.45
  -2   5  11 1009.09   63.14
  -2  -5  11  989.51   59.16
   2  -5  11  962.99   60.33
  -2  -5  11  904.24   59.32
   2   5  11 1022.02   58.59
   2   5  11 1001.37   61.11
  -2   5  12   30.13    5.36
  -2   5  12   44.60    8.62
   2   5  12   29.51    4.63
   2   5  12   28.78    5.61
   2  -5  12   30.29    5.79
   2  -5  12   34.04    9.20
  -2  -5  12   32.00    5.52
  -2  -5  12   26.23    4.79
  -2   5  12   30.92    4.72
   2   5  12   37.08    7.09
   2  -5  12   38.44    5.78
  -2   5  13   79.96   11.04
   2   5  13   69.25    7.24
   2   5  13   68.83    9.72
   2   5  13   69.65    8.89
  -2  -5  13   49.79    7.56
   2  -5  13   92.62   14.02
  -2  -5  13   76.89    8.04
   2  -5  13   69.01    8.09
  -2   5  13   72.25    8.38
   2  -5  13   78.34    8.98
  -2   5  13   61.74    7.11
  -2   5  14  780.65   49.09
  -2  -5  14  765.68   49.21
  -2   5  14  821.28   52.62
  -2  -5  14  830.71   48.96
   2  -5  14  816.45   49.43
   2   5  14  779.74   51.41
   2   5  14  712.81   50.34
   2   5  14  724.66   48.11
  -2   5  14  755.50   48.30
   2  -5  15    5.43    3.88
  -2   5  15    3.61    5.42
  -2  -5  15    7.03    3.79
  -2  -5  15   -0.80    3.92
   2   5  15    1.43    3.36
  -2   5  15    0.73    3.22
   2   5  16   11.69    4.70
   2  -5  16    9.42    4.42
  -2   5  16   17.31    6.86
  -2  -5  16    8.73    4.41
  -2   5  16    3.93    3.77
  -2  -5  16    7.86    4.12
   2  -5  17  244.96   18.19
  -2   5  17  231.02   19.80
  -2  -5  17  246.19   17.94
  -2  -5  17  230.93   18.02
  -2   5  17  200.71   17.74
  -2  -5  18  323.37   22.95
  -2  -5  18  324.14   22.73
  -2   5  18  323.94   24.63
   2  -5  18  313.12   22.98
  -2   5  19   24.03    5.52
  -2  -5  19   21.37    4.70
  -2  -5  19   34.73    5.33
   2  -5  19   33.39    5.43
  -2  -5  20   -2.66    3.33
   2  -5  20    2.12    2.65
  -2   5  20    0.68    3.76
  -2  -5  20    3.02    2.56
   2  -5  21   49.03    5.67
  -2  -5  21   56.62    5.80
  -2   5 -22  285.20   20.50
  -2   6   0 3209.51  196.01
  -2   6  -1    7.71    2.44
  -2   6  -1    8.43    7.01
   2   6  -2  242.93   21.31
  -2   6  -2  233.95   17.05
  -2   6  -2  211.53   21.48
   2   6  -3  339.96   29.09
  -2   6  -3  342.79   24.89
  -2   6  -3  387.19   29.34
  -2   6  -4    9.30    5.52
  -2   6  -4   13.57    4.81
   2   6  -4    5.29    5.85
   2   6   4    2.79    3.93
  -2   6   4    7.39    3.39
  -2   6   5  518.26   36.79
   2   6   5  535.14   40.21
  -2   6  -5  518.84   38.52
   2   6  -5  562.77   42.47
  -2   6   6   77.49   10.34
   2   6  -6  103.01   14.67
   2   6   6   93.28   13.12
  -2   6  -6   86.47   11.68
   2   6  -7   83.31   13.62
  -2   6   7   63.59    9.34
   2   6   7   76.77   12.39
  -2   6  -7   57.75    9.48
   2  -6   7   73.75    9.59
   2   6   8 1576.55  102.87
  -2   6   9  322.04   21.44
   2  -6   9  341.18   30.30
   2   6   9  329.67   21.40
   2   6  10  527.47   36.65
  -2   6  10  532.18   34.20
   2   6  10  563.04   34.31
   2  -6  10  598.76   44.60
   2   6  11    5.32    2.88
   2   6  11    7.15    4.34
   2  -6  11    2.12    4.61
   2   6  11    6.05    2.69
  -2  -6  11    3.14    2.79
  -2   6  11    3.92    3.48
  -2   6  11   11.26    2.88
  -2   6  11   -1.06    4.52
   2  -6  12  327.54   31.41
  -2   6  12  320.29   22.82
  -2   6  12  294.84   25.90
   2   6  12  347.68   23.04
  -2  -6  12  364.94   23.75
   2   6  12  333.48   25.60
   2  -6  12  356.06   23.99
  -2   6  12  379.13   24.49
  -2  -6  12  321.54   23.63
   2   6  13  149.05   12.43
  -2   6  13  136.62   15.32
  -2  -6  13  181.53   13.31
   2  -6  13  129.82   18.34
   2  -6  13  173.57   13.59
   2   6  13  143.54   14.92
  -2   6  13  178.98   14.03
  -2   6  13  154.58   12.61
  -2  -6  13  126.20   12.56
  -2   6  14  239.30   18.57
  -2  -6  14  266.94   19.60
  -2  -6  14  271.48   19.15
   2   6  14  248.26   18.67
   2   6  14  259.48   21.79
  -2   6  14  257.64   19.70
  -2   6  14  235.21   21.57
   2  -6  14  269.01   19.61
   2   6  15   73.57   10.23
  -2  -6  15   42.82    6.88
  -2   6  15   36.65    8.16
  -2  -6  15   48.35    6.73
   2  -6  15   78.66    8.36
  -2   6  15   33.73    6.96
  -2   6  16  103.03   12.20
   2   6 -16   65.84   15.45
  -2  -6  16   90.00    9.33
  -2   6  16  107.53   10.82
   2  -6  16  113.48   10.26
  -2  -6  16   78.67    9.32
  -2  -6  17   -1.41    3.47
   2  -6  17    3.61    3.55
  -2  -6  17    2.70    3.16
  -2   6  17   -2.09    5.30
  -2   6  18   83.05   10.80
  -2  -6  18  116.02   10.14
  -2  -6  18  105.62   10.09
   2  -6  18  102.93   10.00
  -2  -6  19   70.09    7.34
   2  -6  19   56.28    6.95
  -2  -6  19   59.70    6.97
  -2   6  19   55.43    7.89
   2  -6  20  420.21   28.50
  -2   6  20  427.63   29.45
  -2  -6  20  448.24   28.56
  -2   6 -21   12.93    5.07
   2  -6  21    7.66    2.52
  -2  -6  21    9.69    2.73
  -2   6 -22   15.28    4.27
  -2   7   0  157.33   22.35
  -2   7  -1  418.13   37.37
  -2   7   1  496.34   43.95
  -2   7  -2  701.51   53.78
  -2   7   2  711.79   44.72
  -2   7  -2  764.52   44.76
  -2   7  -2  735.14   46.36
  -2   7   2  805.43   65.29
  -2   7   3  118.88    9.96
  -2   7  -3  136.25   16.76
  -2   7  -3  108.23   11.44
  -2   7  -3  111.51    9.39
  -2   7   3  133.70   27.57
   2   7   3  152.21   15.72
  -2   7   4  595.31   39.78
   2   7   4  593.93   42.98
  -2   7  -4  540.41   38.87
  -2   7  -4  625.69   44.17
  -2   7  -4  552.21   35.25
  -2   7   4  567.92   36.22
  -2   7  -5  120.33   16.24
  -2   7   5  126.32   12.11
  -2   7  -5  141.99   10.80
  -2   7  -5  138.40   14.36
   2   7   5  124.15   15.87
  -2   7   5  128.91   13.80
   2   7   6  981.99   67.93
  -2   7   6 1013.68   62.18
  -2   7  -6  984.30   67.07
  -2   7   6  965.64   64.23
  -2   7  -6  970.47   59.16
  -2   7   7 1160.88   66.80
   2   7   7 1083.48   73.17
   2  -7   7 1091.79   67.53
  -2   7  -7  998.26   63.14
  -2   7  -7 1020.57   70.29
  -2   7   7 1006.47   68.61
  -2   7   8  348.67   27.23
  -2   7   8  291.15   22.38
   2   7   8  324.40   30.28
   2   7   9   -2.36    6.26
   2   7   9    6.89    4.31
  -2   7   9    2.44    3.01
  -2   7  10  375.31   26.19
   2  -7  10  397.25   34.58
   2   7  10  395.13   28.06
   2  -7  11   13.20    6.51
   2   7  11   21.35    6.59
  -2   7  11   10.08    4.73
  -2   7  11   16.44    4.55
  -2  -7  12    7.99    3.55
   2  -7  12    9.26    3.59
  -2  -7  12    5.79    3.15
  -2   7  12    7.77    4.53
   2   7  12    9.38    5.92
  -2   7  12    9.92    4.98
   2  -7  12   11.02    6.48
  -2  -7  13  594.94   37.57
  -2  -7  13  616.38   37.51
   2  -7  13  613.07   37.89
   2   7  13  534.60   39.67
   2  -7  13  586.49   46.42
  -2   7  13  587.17   38.35
  -2   7  13  482.40   38.84
  -2  -7  14   11.42    4.26
  -2   7  14   25.90    6.74
   2  -7  14   11.50    4.27
  -2  -7  14   22.87    4.80
   2   7  14   20.94    7.26
  -2   7  14   14.50    5.31
  -2   7  15  150.02   13.78
   2  -7  15  158.53   13.05
  -2   7  15  115.18   13.94
   2   7  15  142.22   15.44
  -2  -7  15  134.84   12.37
  -2  -7  15  162.44   12.83
  -2   7  16    0.85    4.25
  -2  -7  16    4.04    3.82
   2  -7  16    4.27    3.57
  -2   7  16    7.23    5.01
  -2  -7  16    7.40    3.77
  -2   7  17   44.57    7.70
   2  -7  17   41.48    6.26
  -2  -7  17   38.14    5.91
  -2   7  17   40.16    7.00
  -2  -7  17   50.22    6.33
   2  -7  18   47.82    6.25
  -2   7  18   42.43    7.13
  -2  -7  18   54.98    6.52
  -2  -7  18   52.95    6.46
  -2   7  19   37.01    6.24
  -2   7 -19   54.65    8.20
   2  -7  19   35.56    5.48
  -2  -7  19   42.77    5.67
  -2  -7  19   43.75    5.29
  -2  -7  20   26.04    4.06
  -2   7 -20   36.92    6.69
   2  -7  20   30.75    4.39
  -2   7 -21  277.83   19.99
  -2   7 -22   84.98    7.88
  -2   8   0  873.45   63.47
  -2   8   0  763.35   47.54
  -2   8  -1  324.86   22.16
  -2   8  -1  364.27   34.09
  -2   8   1  335.72   36.47
  -2   8   2   86.70   20.79
  -2   8  -2   97.60    8.23
  -2   8  -2   91.13   15.19
  -2   8  -2   75.19    8.60
  -2   8   2   60.82    7.43
  -2   8   3  219.93   17.15
  -2   8  -3  225.61   19.01
  -2   8  -3  230.85   25.68
  -2   8  -3  245.90   17.02
   2   8   3  238.12   23.06
  -2   8  -4  501.85   33.28
  -2   8   4  513.45   38.05
  -2   8  -4  579.61   37.88
   2   8   4  507.97   40.82
  -2   8   4  526.33   34.55
  -2   8  -4  539.44   43.27
  -2   8  -5   45.36   10.95
  -2   8   5   54.37    8.17
  -2   8  -5   37.19    7.69
  -2   8  -5   46.59    5.99
   2   8   5   43.24    9.87
  -2   8   5   46.20    8.34
   2   8   6  261.98   26.58
  -2   8  -6  256.23   26.45
  -2   8  -6  250.11   23.29
  -2   8   6  293.32   24.24
  -2   8  -6  255.54   18.75
  -2   8   6  280.64   22.10
  -2   8  -7  167.03   20.47
  -2   8  -7  201.67   19.95
   2   8   7  249.54   24.66
  -2   8   7  201.70   17.93
  -2   8   7  222.05   20.70
  -2   8  -7  186.38   14.93
  -2   8   8   38.19    6.01
  -2   8   8   37.71    6.88
  -2   8  -8   54.10    9.80
   2   8   8   41.01   10.72
  -2   8   8   48.36    9.04
  -2   8   9    3.43    3.65
   2   8   9   12.87    7.21
  -2   8  10  328.08   23.48
   2   8  10  325.90   25.33
   2  -8  10  340.62   31.71
  -2   8  11  225.92   17.65
   2  -8  11  182.32   22.80
   2   8  11  240.68   19.74
   2   8  12   20.26    7.05
  -2   8  12   16.83    4.81
  -2   8  12   16.86    5.32
   2  -8  12   22.66    8.08
  -2   8  13   11.14    4.56
   2   8  13    9.40    6.45
  -2   8  13   15.07    5.26
   2  -8  13   18.13    4.56
  -2  -8  13   14.55    3.92
  -2  -8  14  379.95   24.74
   2  -8  14  370.80   24.88
  -2   8  14  361.15   26.06
   2   8  14  333.36   27.36
  -2   8  14  303.38   25.17
  -2  -8  15   99.76    9.55
  -2   8  15   87.52   10.57
  -2   8  15  112.60   11.33
   2   8  15  104.74   13.10
  -2   8 -15   95.76   16.34
  -2  -8  15   88.65    9.17
   2  -8  15  107.11    9.95
  -2   8  16   81.04    9.61
  -2  -8  16   63.66    7.54
  -2   8  16   60.98    8.71
   2  -8  16   88.82    8.81
  -2  -8  16   81.90    8.40
  -2  -8  17   23.30    4.92
   2  -8  17   29.27    5.22
  -2   8  17   22.05    5.27
  -2   8  17   19.13    5.14
  -2  -8  17   19.09    3.98
  -2  -8  18   63.37    6.90
  -2   8  18   68.32    8.20
  -2  -8  18   78.32    7.80
   2  -8  18   75.58    7.81
  -2   8 -19   27.49    6.35
  -2  -8  19   44.48    5.27
   2  -8  19   36.67    5.06
  -2   8 -20   69.77    8.41
  -2  -8  20   63.91    6.13
   2  -8  20   60.11    5.98
  -2   8 -21   11.58    3.64
  -2   8 -22   12.49    2.78
  -2   9   0    6.23    8.75
  -2   9   0   15.51    4.29
  -2   9  -1   11.48    8.14
  -2   9   1   38.31   14.83
  -2   9  -1   27.62    5.08
   2   9  -1   22.16    7.25
  -2   9  -2  292.77   20.76
  -2   9   2  282.85   20.74
   2   9  -2  322.87   28.83
  -2   9  -2  279.40   30.67
  -2   9  -3 1495.74   93.58
  -2   9  -3 1512.83   90.62
   2   9   3 1568.81  100.03
   2   9  -3 1696.10  102.72
  -2   9  -3 1733.68  105.46
  -2   9   3 1433.23   91.01
  -2   9  -4   30.32    9.84
   2   9  -4   27.08   10.07
  -2   9   4   23.82    6.44
  -2   9  -4   19.44    4.88
  -2   9   4   29.28    6.43
  -2   9  -4   31.00    6.71
   2   9   4   21.20    7.63
  -2   9   5  263.10   20.42
   2   9   5  208.50   24.61
  -2   9   5  258.81   23.27
   2   9  -5  300.04   28.73
  -2   9  -5  241.03   22.20
  -2   9  -5  265.41   27.45
  -2   9  -5  219.24   17.64
   2   9   6   44.99   11.69
   2   9  -6   44.65   12.01
  -2   9   6   50.78    9.52
  -2   9   6   47.73    9.67
  -2   9  -6   65.52   10.59
  -2   9  -6   59.54    7.09
  -2   9  -7  105.69    9.90
  -2   9   7   89.24   11.37
   2   9  -7  115.64   17.35
  -2   9   7   92.88   13.97
   2   9   7   93.05   16.14
   2   9   7  103.34   12.70
  -2   9  -7  114.75   14.38
   2   9   8    2.67    6.69
  -2   9  -8    7.97    3.92
   2   9  -8    4.75    5.15
  -2   9   8    5.16    4.32
  -2   9   8    9.36    5.25
  -2   9  -8    5.03    4.47
   2   9   8    5.71    5.99
  -2   9   8    7.40    3.60
  -2   9   9  399.27   28.56
   2   9   9  428.93   39.74
  -2   9   9  390.01   34.46
  -2   9   9  429.48   27.88
  -2   9  -9  390.73   33.67
   2   9  -9  456.64   38.49
   2   9 -10   51.68   12.21
  -2   9 -10   67.96   11.59
   2  -9  10   70.11   13.03
  -2   9  10   56.96    8.23
   2  -9  11  348.73   32.60
   2   9 -11  336.26   33.04
   2   9  11  316.28   26.24
  -2   9 -11  322.40   30.45
  -2   9  11  340.21   24.60
   2   9  12   -1.22    5.31
   2   9 -12    2.68    6.27
  -2   9 -12    4.34    5.44
   2  -9  12    6.94    5.42
  -2   9  12    9.14    4.92
  -2  -9  13    4.00    3.73
   2  -9  13    2.77    3.63
   2   9 -13   -2.76    6.45
  -2   9 -13   11.44    6.40
   2   9  13    1.25    5.52
  -2   9  13    1.90    4.36
  -2   9 -14   96.54   15.90
   2   9  14  111.69   13.42
  -2  -9  14  102.74   10.10
   2  -9  14  132.96   10.90
  -2   9  14  100.56   11.68
  -2   9  15    4.06    3.38
   2   9  15    1.24    5.79
   2   9 -15   -2.73    5.91
  -2   9 -15    2.34    5.49
  -2  -9  15    3.27    3.01
   2  -9  15    2.03    3.68
  -2   9  15   -0.94    4.38
   2   9  16    4.74    6.02
   2  -9  16    0.64    3.11
  -2   9  16    2.57    2.91
  -2  -9  16    4.35    3.30
  -2   9  16   11.52    5.26
  -2   9 -17  427.45   31.96
  -2  -9  17  459.40   29.47
  -2   9  17  429.98   30.65
   2  -9  17  466.69   29.66
   2  -9  18   44.80    5.89
  -2  -9  18   47.36    6.02
  -2   9 -18   49.33    7.69
  -2   9 -19    9.46    4.35
  -2  -9  19   18.41    3.57
   2  -9  19   14.74    3.47
   2  -9  20   -1.66    2.06
  -2  -9  20   -0.66    1.95
  -2   9 -20    2.89    3.23
  -2   9 -21   -1.25    2.33
   2   9 -21    1.98    2.18
  -2  10   0   32.44    5.79
  -2  10  -1   33.88    5.80
   2  10   2   75.55   13.67
  -2  10  -2   65.42    8.10
  -2  10   2   79.66    8.87
   2  10  -2   72.08   13.64
   2  10   3   33.10    9.89
  -2  10  -3   48.36    8.09
  -2  10  -3   44.63    6.69
  -2  10   3   37.11    7.23
   2  10  -3   63.52   13.52
  -2  10   4 2397.24  142.63
  -2  10   4 2360.48  133.42
   2  10  -4 2534.59  149.41
  -2  10  -4 2171.15  138.15
  -2  10   4 2278.11  135.21
  -2  10  -4 2097.17  133.62
   2  10   4 2397.29  146.44
   2  10   5   81.81   14.34
  -2  10  -5   59.85   10.03
  -2  10  -5   57.93    8.70
   2  10   5   48.97    9.61
  -2  10  -5   58.86    7.44
  -2  10   5   58.47    9.32
  -2  10   5   55.20   11.04
   2  10  -5   85.52   15.22
  -2  10  -6  278.41   23.06
  -2  10  -6  276.72   20.69
  -2  10  -6  248.22   25.27
   2  10  -6  330.02   32.30
  -2  10   6  287.22   27.24
   2  10   6  297.81   24.81
   2  10   6  280.88   29.95
  -2  10   6  350.56   24.58
  -2  10  -7   20.20    4.82
  -2  10   7   29.25    6.16
  -2  10   7   38.96    7.23
   2  10   7   24.02    7.59
  -2  10  -7   20.87    6.67
   2  10  -7   18.32    9.36
  -2  10  -7   23.98    6.54
  -2  10   7   20.17    7.27
   2  10   7   24.00    4.24
   2  10   7   33.77   10.36
  -2  10   8  189.83   15.65
  -2  10   8  173.58   15.82
  -2  10   8  147.69   19.99
  -2  10  -8  175.50   19.76
   2  10  -8  176.34   22.78
  -2  10   8  170.17   16.16
   2  10   8  239.37   20.25
   2  10   8  218.63   25.98
  -2  10  -8  191.51   17.78
  -2  10  -8  217.46   15.42
  -2  10   9   -1.39    3.14
   2  10   9   -3.09    7.23
  -2  10  -9    6.95    4.91
   2  10  -9    2.55    6.37
  -2  10   9   10.60    5.93
  -2  10  -9    3.64    5.09
   2  10   9   -1.36    6.36
  -2  10   9   -1.75    4.50
  -2  10  10  198.86   16.83
   2 -10  10  213.45   24.15
   2  10  10  178.81   25.72
   2  10 -10  219.42   24.85
  -2  10 -10  187.51   21.02
  -2  10  11   64.04    8.93
  -2  10 -11   65.55   11.95
   2  10  11   64.75   11.01
   2 -10  11   60.29   12.42
   2  10 -11   63.58   13.94
   2  10 -12  336.65   37.16
   2 -10  12  412.89   37.12
  -2  10  12  441.13   30.30
   2  10  12  456.66   32.92
  -2  10 -12  382.85   35.41
  -2 -10  13    6.65    3.89
  -2  10 -13   12.93    6.34
   2  10 -13   16.51    8.09
  -2  10  13   13.02    5.48
   2 -10  13    5.48    3.36
   2  10  13   10.63    7.63
   2 -10  14  166.36   13.56
   2  10  14  157.39   16.95
  -2 -10  14  165.13   13.45
  -2  10  14  151.20   15.38
   2  10 -14  172.06   22.73
  -2  10  15   40.13    8.06
   2  10  15   48.67    9.88
   2 -10  15   68.30    7.53
  -2 -10  15   59.05    7.03
   2 -10  16  421.37   26.59
  -2 -10  16  395.02   26.23
   2  10  16  359.50   29.29
  -2  10  16  377.22   27.98
   2 -10  17   -2.15    3.01
  -2  10  17   -1.56    4.09
  -2 -10  17   -2.63    2.76
  -2  10 -17   -0.88    4.43
   2 -10  18  102.86    9.28
  -2 -10  18  124.44    9.71
  -2  10 -18  116.52   11.35
  -2  10 -19   10.46    4.01
  -2 -10  19    8.96    2.69
   2 -10  19   14.22    3.03
  -2  10 -20   13.51    3.49
   2  10 -20   11.13    3.43
  -2  10 -21   -0.30    1.64
  -2  11   0   67.86    8.33
  -2  11  -1  345.41   24.69
  -2  11   2 1096.29   71.67
   2  11   2 1233.27   84.64
   2  11  -2 1322.27   84.98
  -2  11  -2 1183.60   71.74
  -2  11  -3  388.63   28.32
  -2  11  -3  396.83   28.03
  -2  11   3  395.30   28.62
   2  11  -3  475.15   40.71
   2  11   3  457.84   39.81
   2  11  -4    8.81    7.82
   2  11   4    9.61    5.45
  -2  11  -4   13.51    4.82
  -2  11  -4   10.55    5.02
   2  11   4   11.26    7.90
  -2  11   4   14.90    5.24
  -2  11  -4    6.70    3.83
  -2  11   4   12.93    7.16
   2  11  -5   -2.95    6.90
  -2  11   5    2.06    4.74
  -2  11  -5   12.72    4.90
   2  11   5    8.72    6.31
   2  11   5    4.04    5.71
  -2  11   5    2.19    5.12
   2  11   5    7.38    3.23
  -2  11  -5    5.78    3.79
  -2  11  -5    3.33    4.17
   2  11   6  489.61   33.24
  -2  11   6  520.96   42.76
   2  11  -6  574.89   47.56
   2  11   6  514.55   47.01
  -2  11  -6  511.11   34.17
  -2  11  -6  474.82   39.85
  -2  11   6  603.10   37.92
   2  11   6  500.00   38.71
  -2  11  -6  557.64   36.91
   2  11  -7  501.20   42.57
   2  11   7  388.02   29.07
  -2  11  -7  472.32   33.11
  -2  11   7  402.89   31.41
  -2  11   7  424.05   38.09
   2  11   7  511.21   36.46
  -2  11  -7  501.17   30.44
   2  11   7  454.13   43.03
  -2  11   7  488.56   33.19
  -2  11  -7  449.60   36.74
  -2  11   8    9.68    5.44
  -2  11   8    2.29    4.97
  -2  11   8   10.69    4.68
  -2  11   8   11.49    5.24
   2  11   8    3.25    6.45
  -2  11  -8   12.55    4.24
   2  11   8    3.13    7.22
  -2  11  -8    7.80    5.23
  -2  11  -8    5.55    5.19
   2  11  -8    8.16    6.38
   2  11   9   13.44    9.40
  -2  11   9    0.76    3.42
  -2  11  -9    2.26    4.80
   2  11  -9    2.68    7.11
   2  11   9    4.69    7.82
  -2  11   9   17.67    5.89
  -2  11  -9    1.87    4.38
   2  11  10  516.60   49.56
  -2  11  10  574.84   38.09
   2  11 -10  528.12   46.59
  -2  11 -10  478.47   42.06
  -2  11 -10  594.78   39.31
   2 -11  11  150.59   20.04
   2  11 -11  151.55   21.04
  -2  11 -11  135.73   14.49
  -2  11  11  140.18   14.28
  -2  11 -12   10.06    5.05
  -2  11  12    2.09    5.15
   2  11 -12    2.72    5.91
   2  11  12    8.74    7.07
   2 -11  13  209.81   15.12
   2  11  13  155.26   18.11
   2  11 -13  146.37   21.65
  -2  11  13  180.96   16.96
  -2  11 -13  154.95   16.45
  -2 -11  13  200.30   14.81
  -2  11 -14  599.22   44.63
   2  11  14  652.93   46.78
  -2 -11  14  726.02   42.82
   2 -11  14  724.17   42.93
  -2  11  14  612.57   44.38
   2  11  15   41.31    9.50
  -2 -11  15   72.92    7.08
  -2  11  15   38.13    7.63
   2 -11  15   65.03    6.91
  -2 -11  16   11.83    3.55
   2 -11  16   14.73    3.85
  -2  11  16   13.06    5.50
   2  11  16   18.25    7.03
  -2 -11  17   66.70    6.92
  -2  11  17   76.88    8.91
   2 -11  17   69.80    7.00
  -2 -11  18  223.92   15.53
   2 -11  18  228.60   15.59
   2  11 -19    6.53    3.00
  -2  11 -20    0.35    1.88
   2  11 -20    3.23    1.78
  -2  12   0 3114.91  185.62
  -2  12   0 3207.42  184.52
  -2  12  -1   77.33    9.50
  -2  12  -1   83.07    8.99
  -2  12   1   78.72    8.12
   2  12   1   92.11    9.52
  -2  12  -2   27.77    5.59
  -2  12  -2   14.54    5.07
   2  12   2   17.79    5.21
  -2  12   2   18.54    5.38
   2  12   2   19.54    9.62
  -2  12  -3  360.97   26.74
  -2  12   3  351.87   26.61
  -2  12   3  315.33   33.26
   2  12  -3  415.13   38.71
   2  12   3  362.68   37.84
   2  12   3  355.37   27.76
  -2  12  -3  424.75   26.90
   2  12   4  439.40   29.54
  -2  12  -4  461.92   31.85
  -2  12   4  383.50   38.29
  -2  12  -4  435.46   30.33
  -2  12   4  429.57   31.42
   2  12  -4  499.97   43.94
   2  12   4  459.27   43.67
   2  12   4  486.22   33.98
   2  12   5   10.26    3.44
  -2  12  -5    5.20    4.13
  -2  12  -5    9.07    4.66
   2  12  -5    9.38    7.84
  -2  12   5    4.95    5.38
   2  12   5    7.01    6.34
  -2  12   5   10.31    5.71
   2  12   5   19.75    8.75
  -2  12  -6  666.22   41.92
  -2  12  -6  626.30   39.21
   2  12  -6  674.49   53.76
  -2  12   6  542.18   47.87
   2  12   6  541.00   43.47
   2  12   6  562.73   38.32
  -2  12   6  648.56   41.88
   2  12   6  551.33   51.91
  -2  12   7  152.22   14.21
  -2  12   7  164.95   16.03
  -2  12   7  161.31   21.03
   2  12  -7  209.32   25.06
   2  12   7  159.18   13.44
   2  12   7  210.43   27.67
   2  12   7  158.70   18.88
  -2  12  -7  171.15   16.25
  -2  12   7  147.92   15.50
  -2  12  -7  168.76   13.82
  -2  12   8 1426.93   85.16
  -2  12   8 1308.86   86.00
  -2  12   8 1280.77   94.00
   2  12   8 1335.95  100.63
  -2  12  -8 1448.02   83.78
  -2  12   8 1313.21   85.35
   2  12  -8 1538.09   98.68
  -2  12  -8 1431.06   86.60
   2  12   8 1408.24   90.97
  -2  12   9  216.71   19.41
  -2  12  -9  241.80   20.09
   2  12   9  254.26   24.32
   2  12  -9  223.08   27.02
   2  12   9  187.19   28.02
  -2  12 -10   48.34    8.59
   2  12  10   30.76   10.28
   2 -12  10   42.62   10.87
   2  12 -10   38.16   10.75
   2  12  10   50.49   13.72
  -2  12  10   35.06    7.96
  -2  12  11   20.95    6.98
  -2  12 -11   28.71    7.25
   2  12 -11   29.77    9.98
  -2  12 -12  604.73   40.82
   2  12 -12  529.81   48.42
  -2  12  12  604.26   40.92
  -2 -12  13  206.39   15.19
  -2  12 -13  189.46   17.10
   2  12  13  196.67   20.45
  -2  12  13  164.67   17.00
   2 -12  13  200.05   15.14
  -2 -12  14  459.94   29.24
  -2  12 -14  457.20   31.64
   2 -12  14  453.02   29.24
  -2  12  14  403.88   31.22
   2  12  14  407.88   33.54
   2 -12  15   48.88    6.07
  -2  12  15   41.75    7.68
  -2 -12  15   32.14    5.26
   2  12  15   44.77    9.92
  -2  12 -15   40.10    7.34
  -2 -12  16  208.09   14.29
   2  12 -16  212.48   15.99
   2 -12  16  203.11   14.27
  -2  12 -16  176.85   15.57
   2 -12  17   18.56    3.53
  -2  12  17    9.62    4.45
  -2 -12  17    9.09    3.03
   2  12 -17   17.26    4.41
  -2  12 -17   18.30    4.87
   2 -12  18    3.65    2.08
   2  12 -18    3.61    2.85
  -2 -12  18    0.67    1.88
   2  12 -19   35.03    3.89
  -2  13   0   55.64    7.89
  -2  13   0   44.79    6.59
  -2  13  -1 1846.27  106.80
   2  13   1 1607.12  123.79
   2  13   1 1786.80  105.95
  -2  13  -1 1733.83  105.78
   2  13   2    7.56    9.47
   2  13   2    6.96    4.58
  -2  13  -2   14.99    5.73
  -2  13   2    4.33    4.43
  -2  13  -2   19.11    6.22
   2  13   3   88.95   18.23
  -2  13   3  114.29   11.59
  -2  13  -3   88.80   10.70
  -2  13   3  134.33   19.67
   2  13   3   84.19   10.96
  -2  13  -3  106.54   10.75
   2  13   4   27.32    5.20
   2  13   4   32.05    7.68
  -2  13  -4   28.31    6.02
  -2  13   4   34.37    6.96
   2  13   4   40.52   12.73
  -2  13   4   22.08    8.62
  -2  13  -4   30.11    6.64
   2  13   5  650.89   43.12
  -2  13  -5  646.76   45.00
  -2  13  -5  703.10   43.85
  -2  13   5  608.82   53.59
   2  13  -5  757.46   58.96
   2  13   5  611.87   58.23
   2  13   5  718.27   48.02
  -2  13   5  715.74   45.80
   2  13   6   44.54   14.39
  -2  13   6   65.03   13.61
   2  13   6   55.99    7.47
   2  13  -6   37.23   12.79
  -2  13  -6   64.65    8.04
  -2  13   6   88.70   10.69
   2  13   6   62.07   11.88
  -2  13  -6   81.52   10.27
   2  13   7 1948.08  120.09
  -2  13   7 2044.87  121.80
  -2  13   7 1911.93  123.31
  -2  13   7 2013.52  133.07
  -2  13   7 2122.63  123.26
   2  13   7 1962.33  139.26
   2  13  -7 2061.98  135.37
  -2  13  -7 2105.85  122.70
   2  13   7 2030.44  127.12
  -2  13  -7 2080.45  120.34
  -2  13  -8   78.49    8.67
  -2  13  -8   68.77   10.10
  -2  13   8   65.47    9.25
   2  13   8   91.87   14.34
   2  13  -8   76.69   15.45
   2  13   8   67.97   16.22
  -2  13   8   81.66   11.78
  -2  13   9  309.98   26.20
   2  13  -9  307.43   33.10
  -2  13  -9  322.99   25.31
   2  13   9  421.52   32.25
   2  13   9  355.03   38.84
  -2  13 -10   20.98    6.29
   2  13  10   18.57   10.49
   2  13  10   32.66   10.86
   2  13 -10   34.78   10.14
   2 -13  10   27.14    9.62
   2  13 -10   21.48    5.27
  -2  13  10   37.93    9.43
   2  13  11  102.87   15.22
   2  13 -11   96.99   10.40
   2  13 -11   86.23   15.67
  -2  13 -11  100.42   11.18
  -2  13  11  110.32   12.88
   2  13 -12   46.17    7.16
  -2  13  12   43.83    8.62
  -2  13 -12   50.91    7.92
   2 -13  13 1079.80   61.54
  -2 -13  13 1075.41   61.55
   2  13 -13 1011.48   62.45
  -2  13 -13  927.44   62.89
  -2  13  13  875.85   63.61
  -2  13  14    8.83    5.44
   2  13  14    9.63    7.42
  -2  13 -14    7.50    4.74
   2  13 -14    3.55    3.47
  -2 -13  14   10.93    3.55
   2 -13  14   11.46    3.68
  -2  13 -15  512.61   34.55
   2 -13  15  534.65   32.95
  -2  13  15  508.43   35.20
   2  13 -15  482.19   33.59
   2  13  15  490.60   37.23
  -2 -13  15  561.96   33.10
  -2 -13  16   18.89    3.69
   2  13 -16   14.07    3.71
  -2  13  16   25.07    5.85
   2 -13  16   10.82    3.18
  -2  13 -16   16.75    4.50
   2  13 -17   29.27    4.37
  -2 -13  17   42.40    4.56
  -2  13  17   31.35    5.49
  -2  13 -17   39.32    5.36
   2 -13  17   35.26    4.26
  -2  13 -18    0.39    2.26
  -2  13 -19  124.73    8.76
  -2  14   0 2212.31  129.86
   2  14   0 2014.85  151.47
  -2  14  -1   22.19    6.01
  -2  14  -1   21.09    4.90
   2  14   1   13.32   11.17
  -2  14   2  170.22   26.19
  -2  14   2  239.56   18.70
  -2  14  -2  240.42   18.45
   2  14   2  176.47   29.02
   2  14   2  230.80   18.44
  -2  14  -2  217.01   17.92
  -2  14  -3  163.84   14.36
  -2  14   3  148.04   13.86
  -2  14   3   96.10   19.06
  -2  14  -3  149.23   13.60
   2  14   3  150.18   13.56
   2  14   3  163.31   14.83
   2  14   3  105.13   22.34
  -2  14  -4   23.87    5.51
   2  14   4   19.81    5.17
   2  14   4   12.39   11.03
   2  14   4   25.57    7.27
  -2  14  -4   29.24    6.37
  -2  14   4   27.83    6.75
  -2  14   4   12.13    7.21
  -2  14   5   15.35    6.22
  -2  14   5   26.80    7.94
  -2  14   5   29.64    9.90
  -2  14  -5   29.80    5.78
   2  14   5   23.00    7.53
   2  14   5   20.31   10.25
   2  14   5   21.93    5.18
  -2  14  -5   26.18    6.09
   2  14   6 1191.48   75.79
  -2  14   6 1276.03   78.15
   2  14   6 1115.85   93.11
  -2  14  -6 1217.47   75.63
   2  14   6 1370.22   81.36
  -2  14   6 1205.42   88.79
  -2  14  -6 1295.05   77.63
  -2  14  -7  157.45   14.57
   2  14   7  144.53   13.12
  -2  14   7  154.56   14.29
   2  14  -7  125.46   20.26
   2  14   7  103.87   21.69
   2  14   7  179.12   19.08
  -2  14   8  659.87   47.34
  -2  14  -8  696.24   45.44
   2  14   8  639.23   60.99
   2  14  -8  691.51   56.07
   2  14   8  721.37   50.74
   2  14   9   50.17   15.35
  -2  14  -9   74.92    9.41
   2  14   9   57.75   12.93
   2  14  -9   74.49   14.61
  -2  14   9   64.32   10.97
  -2  14  10    9.98    6.27
   2  14  10    7.24    8.18
  -2  14 -10   11.63    4.85
   2  14  11   24.59   10.20
  -2  14 -11   29.38    6.33
  -2  14  11   29.93    8.36
  -2  14 -12  251.97   18.74
   2  14  12  246.69   23.44
   2  14 -12  212.91   16.88
  -2  14  12  225.02   19.96
  -2 -14  13   22.78    4.45
  -2  14 -13   21.58    5.28
   2 -14  13   28.52    4.79
  -2  14  13   14.52    6.50
   2  14 -13   28.31    4.83
  -2  14  14  508.49   37.49
   2  14 -14  501.89   34.92
   2 -14  14  615.54   35.36
  -2 -14  14  609.69   35.35
  -2  14 -14  550.45   36.54
  -2 -14  15   60.73    5.85
   2  14  15   43.04    9.16
  -2  14 -15   50.64    6.64
   2  14 -15   38.72    5.16
  -2  14  15   55.67    8.11
   2 -14  15   49.89    5.52
  -2  14 -16   77.87    7.89
  -2 -14  16   91.21    7.31
   2 -14  16   98.10    7.39
   2  14 -16   72.56    6.67
  -2  14  16   90.35    9.26
  -2  14  17   -0.49    2.89
  -2  14 -17    0.76    2.29
  -2  14 -18    6.39    1.76
  -2  15   0   46.72    7.51
   2  15   0   39.29   16.46
  -2  15   1  543.11   53.35
   2  15   1  504.06   57.28
  -2  15  -1  624.90   39.80
  -2  15   2  462.88   33.07
  -2  15  -2  496.71   33.28
   2  15   2  489.81   52.42
   2  15   2  500.65   32.94
  -2  15  -2  484.84   32.57
  -2  15   2  413.23   44.65
  -2  15   3   72.66   10.14
  -2  15   3   30.16   11.23
  -2  15  -3   61.44    8.15
  -2  15  -3   59.36    8.10
  -2  15   3   65.18    8.57
   2  15   3   69.56   18.66
   2  15   3   65.28    8.67
   2  15   3   59.21    8.58
  -2  15   4   12.00    6.80
   2  15   4    9.11    5.67
   2  15   4    5.14    4.23
  -2  15  -4    0.86    3.81
  -2  15  -4    6.33    3.91
  -2  15   4   12.29    4.59
   2  15   4    4.51    7.97
  -2  15   4   -3.24    5.74
   2  15   5  119.68   12.52
  -2  15   5  169.25   16.40
   2  15   5  113.81   22.93
  -2  15  -5  163.69   13.00
  -2  15   5  135.94   13.89
   2  15   5  142.34   14.94
  -2  15  -5  122.16   12.87
  -2  15  -6  216.32   18.07
  -2  15   6  223.70   18.94
  -2  15   6  254.36   21.56
   2  15   6  166.26   29.04
   2  15   6  216.86   17.78
   2  15   6  246.08   21.35
  -2  15   7  737.97   50.34
  -2  15  -7  794.47   49.72
   2  15   7  699.83   66.29
   2  15   7  807.11   53.72
   2  15   8   16.04   10.07
  -2  15  -8   13.28    5.25
   2  15   8   17.09    8.17
  -2  15   9    2.63    5.93
  -2  15  -9   -1.60    3.87
   2  15   9    8.20    7.94
  -2  15 -10  164.23   14.67
  -2  15  10  199.97   18.22
   2  15  10  166.84   19.85
   2  15  11   13.17    9.21
  -2  15 -11    3.64    3.82
  -2  15  11    7.14    5.87
   2  15  12   -3.12    8.27
  -2  15  12    7.64    6.40
  -2  15 -12   -0.68    3.35
  -2  15 -13  136.29   12.44
   2 -15  13  158.81   11.86
  -2 -15  13  155.96   11.85
   2  15  13  166.18   17.93
  -2  15  13  144.29   14.57
  -2  15 -14  186.19   14.19
  -2 -15  14  193.51   13.40
  -2  15  14  147.68   15.18
   2 -15  14  195.10   13.33
  -2  15 -15  151.48   12.02
   2 -15  15  160.21   11.41
  -2  15  15  153.59   13.69
  -2 -15  15  169.85   11.57
  -2  15 -16    4.04    2.18
  -2  15  16    2.22    3.29
  -2  16   0  253.69   19.83
  -2  16   0  259.12   33.34
   2  16   0  245.49   36.69
  -2  16  -1    3.37    4.35
  -2  16   1   -0.88    4.80
   2  16   1   -5.06   10.00
  -2  16   1    7.55    8.18
  -2  16   1    2.14    4.72
  -2  16   2   20.63    5.33
   2  16   2   -5.01    9.95
  -2  16   2   22.89    6.20
   2  16   2   10.50    5.00
  -2  16  -2   19.82    5.18
   2  16   2   11.05    4.36
  -2  16   2   18.18    9.69
  -2  16   3    2.07    4.58
   2  16   3    9.80   12.25
  -2  16   3    3.49    6.18
   2  16   3   -0.92    3.81
   2  16   3    2.44    3.87
   2  16   4  298.58   24.18
  -2  16   4  370.56   26.70
   2  16   4  293.15   39.47
   2  16   4  326.76   24.62
  -2  16  -4  343.71   23.59
   2  16   5   -0.87    3.76
   2  16   5   10.92    5.27
  -2  16   5   -1.19    5.39
  -2  16  -5    2.84    3.67
   2  16   5    4.55    8.05
  -2  16  -6  601.26   39.92
   2  16   6  556.38   40.34
  -2  16   6  646.70   43.81
  -2  16   6  646.61   42.23
   2  16   6  712.64   43.53
  -2  16   7    1.94    4.11
  -2  16  -7   -2.08    3.41
   2  16   7   -2.40    6.38
  -2  16   7    1.29    5.92
  -2  16  -8   -1.33    3.34
   2  16   8   -1.30    7.07
   2  16   9    4.12    6.67
  -2  16  -9   12.78    3.92
  -2  16 -10    4.24    3.17
   2  16  10    1.42    6.75
  -2  16  10    2.43    5.98
  -2  16  11   -3.36    5.61
  -2  16 -11    3.38    3.07
   2  16  11    5.63    7.77
  -2  16 -12   59.38    6.92
   2  16  12   60.29   11.49
   2 -16  12   68.63    6.73
  -2  16  12   56.40    9.37
  -2 -16  12   75.99    6.93
   2  16  13   13.47    7.51
  -2  16 -13   15.17    3.52
  -2  16  13   20.18    6.27
  -2 -16  13   26.69    3.76
   2 -16  13   21.43    3.50
  -2  16 -14  277.52   19.09
  -2 -16  14  300.03   18.91
   2 -16  14  306.79   18.90
  -2  16  14  272.94   21.31
  -2  16  15    1.77    3.68
  -2  16 -15    0.78    1.53
  -2  17   0   54.08    7.50
  -2  17   0   63.96    9.24
   2  17   1  217.84   17.58
  -2  17  -1  185.89   15.24
  -2  17   1  180.19   15.70
  -2  17   2  518.62   33.88
   2  17   2  490.00   34.14
  -2  17  -2  476.40   32.09
   2  17   3  142.31   14.44
  -2  17   3  177.13   15.36
  -2  17  -3  175.03   13.19
   2  17   3  150.72   13.52
  -2  17  -4   23.86    4.33
   2  17   4   29.03    6.14
   2  17   4   32.00    5.67
  -2  17   4   35.49    7.00
   2  17   5   28.07    5.83
   2  17   5   23.63    5.31
  -2  17   5   14.90    5.95
  -2  17   5   16.81    6.21
  -2  17   6  234.36   19.29
   2  17   6  250.18   19.43
  -2  17  -6  223.28   16.59
  -2  17   6  249.48   20.49
   2  17   7  224.29   17.95
  -2  17   7  219.56   19.04
  -2  17  -7  180.89   14.41
  -2  17  -8    7.56    2.91
   2  17   8    7.16    5.88
   2  17   9    9.64    6.42
  -2  17  -9    1.79    2.27
   2  17  10  217.59   17.99
  -2  17 -10  159.71   12.41
  -2  17  11   76.63   10.25
   2  17  11   79.79   10.92
  -2  17 -11   71.27    6.64
  -2 -17  12   43.38    4.74
   2 -17  12   40.36    4.60
  -2  17  12   40.77    7.31
   2  17  12   45.95    8.77
  -2  17 -12   36.59    4.14
  -2  17  13   86.41    9.37
  -2  17 -13   71.75    5.81
  -2  17  14  177.94   14.11
  -2  18   0 1379.57   84.00
  -2  18   0 1353.31   86.49
   2  18   0 1485.17   85.88
  -2  18   1   67.82    8.33
  -2  18  -1   76.55    7.98
   2  18  -1   90.56    9.76
   2  18   1   75.96    9.23
  -2  18  -1   76.64   10.14
   2  18   2   20.90    5.30
  -2  18  -2   17.71    4.05
  -2  18  -2   26.04    6.21
  -2  18   2   20.14    4.98
   2  18   3   74.59    9.07
  -2  18   3   75.42    9.06
   2  18   4   54.88    6.86
  -2  18   4   56.69    7.98
   2  18   4   64.56    8.01
  -2  18   5   57.75    8.08
   2  18   5   49.80    6.60
  -2  18   5   40.10    7.22
  -2  18   6  353.91   26.01
   2  18   6  346.61   24.47
   2  18   7   82.22    8.97
  -2  18   7   65.00    9.60
  -2  18   8  635.92   40.91
   2  18   8  576.60   39.02
  -2  18   9   63.47    9.44
   2  18   9   75.11    9.05
   2  18  10   18.06    5.74
   2  18  11   10.04    4.61
  -2  18  12  195.55   15.53
  -2  18  13   32.56    5.19
   2  19   0   65.14    7.73
  -2  19   0   64.35    6.85
   2  19   1 1247.20   75.02
  -2  19  -1 1349.87   76.35
   2  19  -1 1279.55   75.00
  -2  19   1 1231.56   74.03
  -2  19  -1 1165.49   73.20
  -2  19  -2    4.59    4.12
   2  19  -2    4.40    3.44
   2  19   2    8.62    4.20
  -2  19   2    4.57    3.51
   2  19   3  117.17   11.09
  -2  19  -3  127.47   11.74
   2  19  -3  141.59   11.40
  -2  19   3  120.64   11.00
  -2  19  -4   38.35    5.85
  -2  19   4   31.37    5.60
  -2  19   4   38.71    6.84
  -2  19   5  561.46   36.46
  -2  19   6   17.27    5.16
   2  19   6    9.97    3.23
   2  19   7 1202.07   76.28
  -2  19   7 1454.19   78.66
   2  19   8   12.10    3.47
  -2  19   8   13.83    4.59
  -2  19   9  379.78   26.03
  -2  19  10   -0.61    3.64
   2  20   0 1357.49   80.23
   2  20   1   13.23    3.43
  -2  20   1   17.58    3.34
   2  20  -1   13.32    3.28
  -2  20  -2  216.75   15.39
   2  20  -2  186.97   14.12
  -2  20   2  198.95   14.04
  -2  20   3   92.66    9.20
  -2  20  -3   80.41    7.98
   2  20  -3   69.00    6.98
  -2  20   3   81.30    7.37
   2  20  -4  121.36    9.95
  -2  20  -4  143.70   10.92
  -2  20   4  132.40   10.53
   2  20  -5   -1.09    1.99
  -2  20   5    2.74    2.86
  -2  20  -5    2.31    2.80
  -2  20  -6  713.51   41.11
   2  20  -6  637.96   40.27
  -2  20   6  671.80   41.21
  -2  20  -7   41.34    4.53
   2  20  -7   29.44    3.88
  -2  20   7   36.87    4.95
  -2  20  -8  654.92   36.67
   2  20  -8  548.00   35.93
  -2  20   8  641.96   37.42
  -2  20  -9   34.06    3.53
   2  20  -9   24.14    2.83
  -2  20   9   32.49    4.19
  -2  21  -3   18.06    3.23
  -2  21  -4   15.49    2.96
  -2  21  -5   10.19    2.45
  -2  21  -6  140.96    9.84
  -2  21  -7  255.01   16.00
   3   0   0    2.34    2.45
   3   0  -1 1821.35  106.32
   3   0  -1 1871.35  106.30
   3   0   1 1765.07  107.52
   3   0  -2   -0.29    1.50
   3   0   2    1.97    2.90
   3   0   2   -1.16    4.82
   3   0  -2   -2.34    2.56
   3   0   3  301.32   26.19
   3   0  -3  334.60   20.02
   3   0   4   -2.79    5.80
   3   0   5   35.27    6.97
   3   0   5   26.07    8.11
   3   0   6   -1.21    4.90
   3   0   6    1.69    5.99
   3   0   7 1335.97   80.49
  -3   0   7 1176.78   77.28
  -3   0   8    4.37    1.67
   3   0   8   -1.63    5.20
   3   0   8    2.93    1.57
   3   0   9    8.23    2.06
  -3   0   9    5.87    1.87
   3   0  10    3.37    2.07
   3   0  10    4.32    5.41
  -3   0  10    1.93    2.17
  -3   0  11   80.77    7.35
   3   0  11   83.34    7.33
   3   0  11   65.64    9.14
  -3   0  11   75.15    9.37
   3   0  11   70.43   13.95
   3   0  12    2.08    2.84
   3   0  12    2.21    3.78
  -3   0  12    0.90    3.64
  -3   0  12   -1.58    2.71
   3   0  13  399.00   26.25
  -3   0  13  375.97   27.95
  -3   0  13  383.98   26.05
  -3   0  14    3.34    3.14
  -3   0  14    1.89    4.11
   3   0  14    4.87    3.26
   3   0  15  202.29   16.27
  -3   0  15  198.76   17.31
  -3   0  15  200.74   15.95
  -3   0  16    1.53    3.94
   3   0  16   -4.26    4.52
  -3   0  16    0.98    4.31
  -3   0  17   37.12    6.06
  -3   0  17   40.58    7.56
   3   0  17   40.25    6.89
  -3   0  18   -1.49    3.78
   3   0  18   -2.65    4.70
  -3   0  18   -0.89    4.65
  -3   0  19   53.63    7.26
   3   0  19   67.94    8.47
  -3   0  19   65.00    8.66
   3   0  20   -5.52    4.57
  -3   0  20    3.45    4.10
  -3   0  20   -1.73    3.50
  -3   0  21  249.62   16.81
   3   0  21  215.46   16.09
  -3   0  21  209.66   15.55
  -3   0  22    0.43    2.45
   3   1   0 1544.96   91.31
   3   1   0 1629.30   91.50
   3   1   0 1497.05   90.92
   3   1   0 1545.87   94.15
   3  -1  -1 1226.29   69.47
   3   1  -1 1193.50   70.05
   3   1  -1 1178.63   71.24
   3   1   1 1100.44   71.21
   3   1   1 1227.26   71.73
   3   1  -1 1191.39   70.40
   3   1  -1 1225.26   73.34
   3   1   2   98.21   11.94
   3   1   2  110.87    9.99
   3  -1  -2   87.81    7.88
   3   1  -2  110.41    9.72
   3   1   2  110.19    9.94
   3   1  -2  113.10    7.68
   3   1  -3   42.07    7.36
   3  -1   3   28.31    7.95
   3   1   3   49.03    8.69
   3   1   4  296.59   24.99
   3  -1   4  276.30   22.45
   3  -1   4  304.81   25.18
   3  -1   5 1032.80   63.57
   3   1   5  973.77   62.27
   3   1   5  968.19   66.06
   3  -1   5  917.15   64.59
   3   1   6  886.29   59.48
   3  -1   6  954.03   60.94
   3  -1   6  838.40   61.18
  -3   1   6  973.00   61.31
   3  -1   7  233.68   22.19
   3   1   7  306.34   22.83
   3  -1   7  293.87   24.34
  -3  -1   7  214.16   18.02
  -3   1   7  197.84   21.09
   3  -1   8  214.80   21.85
  -3   1   8  223.94   14.18
   3   1   8  232.25   14.23
   3   1   8  247.93   21.95
  -3  -1   8  198.79   14.13
   3  -1   8  205.92   14.12
   3   1   9  600.53   35.55
   3  -1   9  564.34   45.03
   3   1   9  569.50   44.54
   3  -1   9  587.95   35.69
  -3  -1   9  589.96   35.76
  -3   1   9  574.04   35.50
   3  -1  10   65.00    6.32
  -3  -1  10   60.00    6.25
   3  -1  10   73.01   13.22
   3   1  10   73.26    6.26
  -3   1  10   64.15    6.06
   3  -1  11  185.85   14.37
  -3  -1  11  210.44   14.71
   3  -1  11  200.81   23.59
   3  -1  11  174.54   16.76
  -3   1  11  202.15   14.39
   3   1  11  223.62   14.46
  -3  -1  11  190.92   16.67
   3  -1  12    3.91    2.62
  -3   1  12    0.50    2.48
   3  -1  12   -5.30    7.03
  -3  -1  12   -1.65    3.18
  -3  -1  12    5.23    3.78
   3   1  12    3.43    2.64
  -3  -1  13  181.71   15.75
   3   1  13  180.17   13.80
   3  -1  13  190.21   14.43
  -3   1  13  159.55   13.51
  -3  -1  13  181.64   14.03
   3  -1  14  340.47   22.93
  -3  -1  14  315.29   23.93
  -3   1  14  299.31   21.96
   3   1  14  304.36   21.98
  -3  -1  14  315.64   22.38
  -3  -1  15   96.64    9.71
   3   1  15   89.30    9.59
  -3  -1  15   82.29   10.47
  -3   1  15   90.37    9.36
   3  -1  15   91.97    9.79
   3  -1  16   34.63    6.83
  -3   1  16   39.47    6.37
   3   1  16   42.49    6.80
  -3  -1  16   45.30    6.48
  -3  -1  16   34.27    7.30
   3  -1  17  300.64   22.69
  -3  -1  17  346.04   23.77
  -3  -1  17  290.83   21.79
  -3   1  17  294.38   22.13
   3   1  17  283.41   22.57
  -3  -1  18   14.30    4.40
  -3   1  18   12.31    4.42
   3   1  18   18.87    5.38
   3  -1  18    8.58    4.42
  -3  -1  18   15.61    5.58
   3   1  19    4.17    4.39
  -3  -1  19    9.39    4.56
  -3  -1  19    5.84    3.92
  -3   1  19    7.69    4.26
   3  -1  19   14.83    4.75
  -3   1 -20   98.82   10.62
  -3   1  20  100.93    9.70
   3   1  20  106.71   10.55
   3  -1  20  101.93   10.12
  -3  -1  20  128.87   11.01
  -3  -1  20  118.73    9.88
  -3  -1  21  136.28   10.79
  -3  -1  21  137.04   11.47
   3  -1  21  140.04   11.22
  -3  -1  22   41.24    5.27
   3   2   0 5559.96  315.90
   3   2   0 5428.66  317.52
   3   2   0 5464.30  315.51
   3   2  -1   56.19    5.77
   3   2  -1   54.58    6.53
   3   2  -1   42.53    6.53
   3   2   1   47.83    6.25
   3   2  -2    2.67    3.01
   3   2   2    1.52    3.29
   3  -2  -2    3.97    1.46
   3   2  -2    2.98    3.73
   3   2   2    4.90    3.10
   3   2  -3 3402.22  210.89
   3   2  -3 3669.42  208.28
   3   2   3 3524.79  212.88
   3   2   3 3698.28  210.29
   3   2   4 4422.35  245.32
   3  -2   4 4228.18  246.43
   3  -2   4 3912.28  247.65
   3   2  -4 4164.28  241.70
   3   2  -5   54.56    5.87
   3  -2   5   43.36    8.86
   3   2   5   46.86    7.48
   3  -2   5   48.29    9.58
   3   2  -6    3.50    1.84
   3   2   6    8.14    4.60
   3  -2   6    3.06    4.88
   3  -2   6    4.49    5.77
  -3   2   6   11.07    7.30
   3  -2   7  404.73   31.07
   3   2  -7  329.77   20.87
   3  -2   7  471.79   31.39
  -3  -2   7  313.87   22.08
  -3   2   7  457.41   32.96
   3  -2   8 2676.71  155.23
   3   2   8 2758.00  154.88
   3  -2   8 2785.08  164.47
  -3  -2   8 2586.74  155.22
  -3   2   8 2721.02  154.89
   3  -2   8 2678.17  165.94
  -3  -2   9  204.02   14.75
   3  -2   9  209.09   14.86
   3   2   9  229.12   14.53
  -3   2   9  222.13   14.48
   3  -2   9  206.82   22.87
  -3  -2  10   32.82    4.51
   3  -2  10   40.21    4.91
  -3   2  10   29.95    4.05
   3  -2  10   36.42    9.85
   3   2  10   37.09    4.27
   3  -2  11  431.64   37.21
   3  -2  11  398.16   25.78
  -3  -2  11  377.26   25.54
  -3   2  11  395.26   25.12
   3   2  11  395.51   25.06
  -3  -2  11  383.95   27.68
  -3   2  11  371.39   28.40
  -3  -2  12 1390.70   82.82
   3  -2  12 1397.00   83.17
  -3   2  12 1380.65   82.29
   3   2  12 1402.29   82.27
   3  -2  12 1384.51   95.73
  -3   2  12 1403.79   85.78
  -3  -2  12 1355.62   84.64
   3  -2  13   -0.69    3.62
   3   2  13    2.22    2.78
  -3   2  13    0.99    4.30
  -3  -2  13    0.87    3.70
   3  -2  13    5.44    7.22
  -3   2  13    2.27    2.75
  -3  -2  13    4.42    3.16
  -3   2  14   -1.02    4.67
  -3  -2  14    1.37    3.43
   3   2  14    2.56    3.25
  -3   2  14   -0.65    3.09
  -3  -2  14    0.90    4.37
   3  -2  14   11.57    4.53
   3  -2  15   15.07    4.73
  -3   2  15   12.99    4.19
   3   2  15    5.83    3.87
  -3  -2  15   10.17    4.81
  -3   2  15   13.38    5.94
  -3  -2  15   13.78    4.45
  -3  -2  16 1076.45   67.03
   3  -2  16 1101.01   68.12
  -3  -2  16 1156.07   68.76
  -3   2  16 1047.39   67.16
   3   2  16 1116.24   67.69
  -3   2  16 1072.89   69.09
  -3   2  17  237.21   19.20
   3   2  17  256.53   19.90
  -3  -2  17  260.74   19.16
   3  -2  17  229.35   19.44
  -3  -2  17  291.02   20.78
  -3   2  17  251.24   20.69
  -3   2  18    3.90    3.65
   3  -2  18    2.44    3.74
  -3  -2  18    0.68    3.47
  -3  -2  18    7.54    4.80
   3   2  18   -4.43    4.70
   3  -2  19   53.98    7.27
  -3  -2  19   66.92    8.17
  -3  -2  19   47.50    6.40
  -3   2  19   43.88    6.89
   3   2  19   41.73    7.02
  -3  -2  20  409.61   28.90
   3  -2  20  469.67   29.90
  -3  -2  20  488.16   30.30
  -3   2 -20  456.38   30.99
  -3   2 -21   59.11    6.98
   3  -2  21   42.93    5.50
  -3   2  21   53.72    6.64
  -3  -2  21   45.23    5.83
  -3  -2  21   45.43    5.37
  -3  -2  22   -1.17    2.41
  -3   2  22    5.09    2.76
   3   3   0 1078.68   71.93
   3   3   0 1199.37   70.94
   3   3   0 1204.25   71.33
   3   3  -1  244.22   18.65
   3   3  -1  234.91   18.66
   3   3   1  244.96   18.55
   3   3   2 2361.10  138.53
   3   3  -2 2310.78  138.54
   3   3  -2 2321.31  137.22
  -3   3   3  531.47   31.59
   3   3   3  559.06   36.89
   3   3  -3  473.53   36.96
   3   3  -3  537.16   34.33
   3   3  -4 2546.08  161.16
   3   3  -4 2658.32  154.86
   3   3   4 2752.40  159.22
   3   3   5  720.09   49.57
   3  -3   5  704.91   50.57
  -3   3   5  763.33   55.91
   3  -3   6   43.71    9.78
   3  -3   6   60.15   10.11
  -3   3   6   67.64   14.35
   3  -3   7  472.16   38.90
  -3   3   7  505.32   29.55
   3  -3   7  454.48   36.40
   3   3   7  482.20   29.44
  -3   3   7  461.09   41.07
   3  -3   8   72.04   13.76
  -3  -3   8   94.37    7.74
   3   3   8   95.29    7.19
   3  -3   8   85.73    7.62
  -3   3   8   95.60    7.19
   3  -3   8   74.86   12.21
   3   3   9  124.68    9.27
   3  -3   9  110.96    9.71
  -3   3   9  128.66    9.28
  -3  -3   9  134.19    9.95
  -3  -3  10 1644.71   99.12
  -3   3  10 1681.59   98.57
   3  -3  10 1652.78   99.47
   3  -3  10 1616.28  110.92
   3   3  10 1776.65   98.71
  -3   3  11  284.35   22.57
  -3   3  11  278.02   18.70
   3   3  11  296.54   18.86
   3  -3  11  261.09   19.46
   3  -3  11  307.73   29.98
   3   3  11  315.63   22.56
  -3  -3  11  265.65   20.88
  -3  -3  11  257.54   19.06
  -3  -3  12  179.32   15.90
  -3   3  12  179.29   17.16
   3  -3  12  193.87   15.35
   3   3  12  204.60   14.46
   3  -3  12  192.71   23.62
  -3  -3  12  201.39   14.96
  -3   3  12  205.28   14.54
  -3   3  13  107.18    9.45
   3   3  13   99.45    9.24
  -3  -3  13  107.41   11.05
   3  -3  13   87.41    9.76
  -3   3  13   97.62   11.94
   3  -3  13  122.09   18.19
  -3  -3  13  105.35    9.91
  -3  -3  14   24.56    5.85
  -3   3  14   25.61    6.65
  -3   3  14   33.08    5.45
  -3  -3  14   33.32    5.53
   3  -3  14   26.78    9.30
   3   3  14   24.76    4.75
   3  -3  14   21.35    5.41
  -3   3  15  179.18   17.17
  -3  -3  15  202.60   15.47
   3  -3  15  184.06   15.67
   3   3  15  195.62   15.29
  -3  -3  15  176.13   15.99
  -3   3  15  185.07   15.09
  -3  -3  16  156.36   12.70
   3  -3  16  119.73   12.41
  -3   3  16  126.03   12.22
   3   3  16  147.10   12.89
  -3   3  16  140.02   14.18
  -3  -3  16  126.04   12.95
  -3  -3  17   34.96    5.57
   3  -3  17   34.05    6.27
   3   3  17   16.08    5.28
  -3   3  17   24.99    6.73
  -3   3  17   11.99    4.75
  -3  -3  17   18.09    5.84
  -3  -3  18  492.65   32.67
   3  -3  18  528.62   33.72
   3   3  18  458.96   33.61
  -3  -3  18  564.75   34.35
  -3   3  18  469.32   33.26
  -3   3  18  494.10   34.45
  -3   3  19   58.34    8.44
   3  -3  19   70.93    8.03
  -3  -3  19   80.52    7.96
  -3  -3  19   72.50    8.60
  -3   3  20    3.41    3.67
   3  -3  20   -1.12    2.94
  -3   3 -20   -0.79    3.94
  -3  -3  20    1.20    3.32
  -3  -3  20    0.50    2.72
   3  -3  21   13.93    3.32
  -3   3  21   18.54    4.22
  -3   3 -21   25.87    4.98
  -3  -3  21   17.34    3.83
  -3  -3  21   19.63    3.43
   3   4   0  918.94   58.22
   3   4  -1    2.84    4.01
   3   4   1    0.91    3.10
  -3   4  -2  794.89   48.15
   3   4  -2  826.93   54.03
   3   4  -3 1571.62  101.66
   3   4   3 1693.89  100.94
  -3   4   3 1633.59   95.68
   3   4   4  316.24   23.84
   3   4  -4  220.86   23.57
  -3   4   4  288.64   30.63
  -3   4   4  268.54   18.16
   3   4  -5  950.16   68.23
  -3   4   5 1072.67   77.30
  -3   4   6  887.12   73.70
   3   4  -6 1065.07   69.07
   3  -4   6  944.49   64.61
   3   4   7   74.47    5.87
  -3   4   7   80.26   16.28
  -3   4   7   66.77    5.77
   3  -4   7   78.45   13.40
   3  -4   7   71.57   11.17
   3  -4   8  356.03   34.29
  -3   4   8  392.08   24.67
   3  -4   8  421.92   31.90
   3   4   8  399.36   24.67
   3  -4   9  675.69   46.21
   3   4   9  781.08   45.66
  -3   4   9  795.32   45.72
   3  -4   9  787.36   57.72
   3  -4   9  784.00   53.12
   3  -4  10  299.67   21.67
   3   4  10  315.31   20.85
  -3   4  10  318.98   20.88
   3  -4  10  309.68   31.09
   3   4  10  335.48   24.05
  -3  -4  10  334.01   21.52
   3   4  11  632.79   36.96
   3  -4  11  596.85   48.57
   3   4  11  603.82   40.21
   3  -4  11  577.66   37.79
  -3   4  11  559.06   40.74
  -3   4  11  597.47   36.85
  -3  -4  11  536.49   38.36
  -3  -4  11  607.93   37.40
  -3   4  12  201.57   15.57
   3   4  12  224.36   15.75
  -3  -4  12  221.42   17.44
  -3   4  12  215.11   19.25
   3  -4  12  193.25   24.15
   3   4  12  253.68   19.66
   3  -4  12  204.14   16.51
  -3  -4  12  233.81   16.44
  -3  -4  13    1.65    3.49
  -3  -4  13   -0.63    2.89
   3  -4  13    0.74    3.69
  -3   4  13   10.47    3.64
   3   4  13    3.42    2.90
  -3   4  13   -2.23    5.84
   3  -4  13   -5.19    6.08
  -3  -4  14  263.51   19.59
   3  -4  14  261.59   20.24
  -3   4  14  288.97   19.74
   3   4  14  281.40   19.63
   3  -4  14  243.05   28.11
  -3  -4  14  277.07   20.94
  -3   4  14  244.59   21.84
   3  -4  15   15.53    4.91
  -3   4  15   20.04    4.77
   3   4  15   13.39    4.45
  -3  -4  15   26.95    5.65
  -3   4  15   14.59    6.21
  -3  -4  15   24.25    5.02
  -3  -4  16  216.60   16.23
  -3   4  16  192.45   16.22
  -3  -4  16  198.64   16.82
   3  -4  16  198.23   16.61
   3   4  16  205.16   16.43
  -3   4  16  199.05   18.29
   3   4 -17  366.00   37.69
  -3  -4  17  340.48   25.51
  -3   4  17  406.49   27.52
   3   4  17  335.35   25.15
   3  -4  17  380.01   25.65
  -3  -4  17  372.13   24.89
  -3   4  17  319.88   24.87
  -3  -4  18   61.10    7.27
  -3   4  18   68.74    9.23
  -3  -4  18   63.10    8.08
   3  -4  18   69.16    8.25
  -3  -4  19   52.34    6.31
  -3  -4  19   62.60    7.28
  -3   4  19   60.31    8.05
  -3   4 -19   57.39    8.74
   3  -4  19   42.13    6.26
   3  -4  20   73.77    7.36
  -3   4 -20   66.10    8.72
  -3  -4  20   68.28    6.96
  -3  -4  20   77.66    7.61
  -3   4  20   70.22    8.10
  -3  -4  21    4.85    2.54
   3  -4  21    5.92    2.59
  -3   4  21   17.86    3.86
  -3  -4  21   15.14    3.31
  -3   4 -21    6.81    3.67
  -3   4 -22   12.23    3.19
   3   5   0  255.18   20.93
   3   5   1   20.53    6.24
   3   5  -1   22.59    5.87
   3   5   2   10.48    4.64
  -3   5  -2   10.51    1.90
   3   5  -2    7.76    4.32
  -3   5  -3    1.57    2.27
   3   5  -3   -1.54    5.63
  -3   5   3    2.38    2.47
   3   5   3    1.28    4.22
   3   5   4  967.08   61.24
  -3   5   4  873.75   55.63
   3   5  -4  907.46   63.26
  -3   5   4  985.63   74.88
   3   5  -5    4.01    6.15
  -3   5   5    3.25    2.38
   3   5  -6  336.23   30.83
  -3   5   6  309.31   39.34
  -3   5   7   25.27   14.29
  -3   5   7    8.41    2.34
   3   5  -7   16.53    7.56
   3  -5   7   14.74    5.56
  -3   5   8  224.98   15.59
   3   5   8  245.96   15.73
   3  -5   8  217.36   24.70
   3   5  -8  263.16   25.61
   3  -5   8  223.21   21.48
   3   5   9   10.83    2.48
  -3   5   9    7.04    2.22
   3  -5   9    4.32    3.84
  -3  -5  10  393.17   24.27
   3  -5  10  339.20   24.37
   3   5  10  368.63   23.61
  -3   5  10  349.98   23.55
   3  -5  10  408.76   35.37
   3   5  10  359.38   26.73
   3  -5  11   11.48    3.72
   3   5  11    3.94    4.71
  -3  -5  11    5.83    2.91
  -3   5  11   11.65    5.56
   3  -5  11    2.49    5.41
   3   5  11   11.06    2.95
  -3   5  11    6.26    2.52
  -3  -5  11    6.53    3.00
  -3  -5  12    2.28    3.74
   3  -5  12   -0.69    3.28
  -3   5  12   -1.17    5.27
   3   5  12   -2.12    5.38
   3   5  12   -0.53    2.62
   3  -5  12   -2.55    5.03
  -3   5  12    2.14    2.68
  -3  -5  12    3.51    3.11
   3  -5  13    5.13    3.46
   3   5  13    4.68    3.06
  -3  -5  13   14.28    4.18
  -3   5  13    9.46    4.58
   3  -5  13    2.56    5.57
  -3  -5  13   13.70    3.77
  -3   5  13   10.67    3.31
   3   5  13    7.92    5.50
   3  -5  14  271.85   20.34
  -3   5  14  263.39   19.54
   3   5  14  264.23   19.50
  -3   5  14  304.47   23.56
   3  -5  14  235.25   27.77
  -3  -5  14  295.39   20.13
  -3  -5  14  263.96   20.65
  -3   5  15    0.71    3.44
  -3  -5  15    4.03    3.31
   3   5  15   -0.69    3.42
   3  -5  15   10.96    3.67
  -3   5  15    4.64    5.14
  -3  -5  15    0.82    3.86
  -3  -5  16   67.25    7.84
  -3  -5  16   62.06    8.54
  -3   5  16   68.38   10.00
   3   5 -16   52.62   13.67
   3  -5  16   75.08    8.49
  -3  -5  17   12.32    3.88
  -3  -5  17   11.41    4.58
  -3   5  17    7.11    5.44
   3  -5  17   21.34    4.75
  -3  -5  18   78.99    8.41
  -3  -5  18   88.40    9.21
   3  -5  18   95.64    9.18
  -3   5  18   86.53   10.43
  -3  -5  19    1.56    2.72
   3  -5  19    0.57    2.65
  -3   5  19   -0.76    3.93
  -3   5 -19   -3.70    4.77
  -3  -5  19    0.60    3.30
  -3  -5  20   70.64    7.09
  -3  -5  20   64.24    6.45
   3  -5  20   69.06    6.86
  -3   5 -20   69.58    8.57
  -3   5  20   62.61    7.62
  -3   5 -21   27.20    4.98
  -3  -5  21   17.99    3.11
  -3  -5  21   24.52    3.73
  -3   5  21   17.32    3.81
  -3   5 -22   12.40    3.45
   3   6   0  692.39   44.30
  -3   6   0  604.69   37.25
   3   6   1 1024.84   66.64
   3   6  -1 1114.95   67.52
  -3   6  -1 1007.42   60.06
  -3   6   1  973.50   72.01
  -3   6  -2  250.91   17.52
   3   6  -2  319.22   25.64
  -3   6  -2  309.22   18.22
  -3   6   2  277.81   18.06
   3   6   2  305.58   24.50
  -3   6   2  307.54   32.04
  -3   6  -3   35.48    4.73
   3   6  -3   60.56   11.42
   3   6   3   65.54   11.03
  -3   6  -3   44.08    4.36
  -3   6   3   22.71    3.76
  -3   6   4    4.60   13.49
   3   6  -4    6.12    5.72
  -3   6  -4    7.07    3.57
  -3   6   4    8.04    3.21
  -3   6   5   31.35   17.98
   3   6  -5   24.07    9.24
  -3   6   5   32.64    5.56
   3   6  -6  689.12   49.57
  -3   6   6  554.62   39.76
  -3   6   7 1361.31   80.35
   3   6  -7 1311.94   89.62
   3  -6   7 1479.51   86.73
  -3   6  -7 1277.84   78.08
   3   6  -8   10.85    6.68
   3  -6   8   10.20    5.03
  -3   6   8    8.43    4.59
   3   6   8   17.58    7.55
   3   6  -9    2.23    5.23
   3  -6   9   -2.40    5.61
   3   6 -10  396.48   35.29
  -3   6  10  396.85   25.50
  -3   6  10  369.11   28.88
   3  -6  10  415.72   36.19
   3   6  10  372.95   27.86
  -3  -6  10  342.44   25.47
   3  -6  11   32.78    5.34
   3   6  11   27.35    7.13
  -3   6  11   18.73    6.40
   3   6 -11   20.25    8.80
  -3  -6  11   20.84    4.64
   3  -6  11   37.82   10.57
  -3  -6  11   35.33    4.88
  -3   6  11   24.64    4.69
  -3  -6  12   25.37    4.66
  -3  -6  12   26.98    5.15
  -3   6  12   30.97    7.89
   3  -6  12   17.87    7.97
  -3   6  12   23.09    5.08
   3  -6  12   32.13    5.32
   3   6 -12   40.78   11.12
   3   6  12   30.14    7.42
  -3  -6  13  518.42   33.37
  -3  -6  13  495.30   34.13
  -3   6  13  493.53   36.85
   3   6 -13  496.51   45.75
   3   6  13  505.39   36.91
   3  -6  13  480.64   43.67
   3  -6  13  543.43   34.26
  -3   6  13  526.04   34.12
  -3  -6  14  118.73   11.63
  -3   6  14  113.13   13.74
   3  -6  14  100.65   17.14
  -3  -6  14  124.87   10.94
   3  -6  14  129.80   11.57
   3   6 -14  104.74   18.64
  -3  -6  15  215.04   17.61
  -3   6  15  215.43   19.91
   3  -6  15  232.92   17.68
   3   6 -15  226.28   27.94
  -3  -6  15  226.94   16.95
  -3  -6  16   30.47    5.54
  -3  -6  16   37.19    6.22
   3   6 -16   53.16   12.94
  -3   6  16   35.99    7.59
   3  -6  16   29.79    6.03
   3  -6  17   53.18    6.24
  -3  -6  17   42.64    5.68
  -3   6  17   50.38    8.20
  -3  -6  17   41.58    6.47
  -3  -6  18   82.24    8.08
  -3   6  18   80.37    9.73
  -3  -6  18   73.90    8.07
   3  -6  18   76.17    8.37
  -3   6 -18   81.18   10.33
  -3  -6  19   40.75    5.31
   3  -6  19   43.21    5.43
  -3   6  19   46.57    6.70
  -3   6 -19   43.03    7.30
  -3  -6  19   48.60    5.87
   3  -6  20   -0.41    2.29
  -3   6 -20    0.72    3.78
  -3  -6  20    0.83    2.44
  -3  -6  20    1.19    2.33
  -3   6  20    2.18    2.98
  -3   6 -21  214.73   16.08
   3   7   0 2256.45  137.16
  -3   7   0 2208.17  143.29
  -3   7  -1 1270.93   86.96
   3   7  -1 1264.80   83.42
  -3   7   1 1354.85   92.60
   3   7   2   66.20   10.87
   3   7  -2   67.22   11.77
  -3   7  -2   41.05   10.05
  -3   7   2   85.27   18.89
  -3   7  -3  681.17   43.96
   3   7   3  769.47   51.92
  -3   7  -3  734.81   52.40
   3   7  -3  761.16   54.37
  -3   7  -4   75.70    9.03
  -3   7   4   97.54   10.58
   3   7  -5 1377.54   90.76
  -3   7  -5 1269.51   80.81
  -3   7   5 1260.86   80.90
  -3   7   6  933.13   61.14
  -3   7   6 1044.16   59.58
  -3   7  -6  923.68   61.93
   3   7  -6 1012.44   70.09
  -3   7  -6  907.44   57.05
  -3   7  -6  923.76   65.24
  -3   7   6 1148.18   91.73
  -3   7   7  500.08   31.78
  -3   7  -7  430.15   28.43
  -3   7   7  392.22   31.54
   3   7   7  487.92   39.06
   3   7  -7  498.81   39.97
   3  -7   7  470.99   35.33
  -3   7  -7  392.63   34.60
   3   7   8  165.68   21.31
  -3   7   8  186.60   16.13
   3   7  -8  209.20   23.06
  -3   7  -8  157.44   18.40
   3  -7   8  165.37   17.83
   3   7   8  170.72   16.15
  -3   7   9  767.52   47.59
   3   7  -9  727.83   57.29
   3  -7   9  768.45   58.28
   3   7 -10   41.27   10.74
  -3   7  10   41.72    7.58
   3  -7  10   40.27   10.89
  -3   7  10   35.03    5.84
  -3   7  11  465.54   30.97
   3   7 -11  472.40   41.25
  -3  -7  11  451.40   30.62
  -3   7  11  455.63   33.33
   3  -7  11  485.42   41.63
   3   7  11  462.89   33.91
   3   7 -12   65.34   13.63
   3  -7  12   35.04    5.94
   3   7  12   46.78    9.09
  -3  -7  12   49.29    6.05
  -3  -7  12   37.27    5.99
  -3   7  12   57.23    8.72
  -3   7  12   40.23    6.32
   3  -7  12   54.11   12.31
   3  -7  13  379.46   25.61
  -3  -7  13  341.43   25.36
  -3   7  13  325.56   27.60
  -3  -7  13  385.27   25.25
   3  -7  13  425.38   37.08
   3   7  13  362.73   28.90
  -3   7  13  366.79   25.99
   3   7 -13  440.10   38.92
  -3  -7  14  732.75   48.16
  -3   7  14  736.43   50.84
   3   7 -14  751.47   61.19
   3   7  14  810.34   52.49
  -3  -7  14  765.53   47.91
  -3   7  14  757.88   48.79
   3  -7  14  818.58   48.74
   3  -7  14  746.34   58.97
  -3  -7  15  215.10   15.69
   3  -7  15  217.76   16.24
  -3  -7  15  181.85   15.64
  -3   7  15  178.09   17.59
   3   7 -15  222.66   26.58
  -3   7  15  198.51   16.57
  -3  -7  16    0.67    3.38
   3  -7  16    1.36    3.34
  -3   7  16   -1.02    4.21
   3   7 -16    2.83    6.63
  -3  -7  16    4.98    3.39
   3  -7  17  346.78   23.05
  -3   7  17  297.19   24.07
  -3   7 -17  333.98   25.70
  -3  -7  17  322.44   22.63
  -3  -7  17  337.69   22.69
  -3  -7  18    3.70    2.96
  -3  -7  18    2.10    2.95
  -3   7  18    3.06    3.77
  -3   7 -18    4.73    4.67
   3  -7  18    5.03    3.09
   3  -7  19   29.41    4.37
  -3  -7  19   26.66    4.21
  -3   7  19   30.56    5.29
  -3   7 -19   28.44    6.25
  -3  -7  19   34.05    4.45
   3  -7  20  139.78   10.32
  -3  -7  20  127.97   10.17
  -3   7 -20  153.09   12.31
  -3   7 -21  178.37   13.63
  -3   8   0 5218.20  317.52
   3   8  -1  420.19   34.63
  -3   8  -1  375.01   37.28
  -3   8   1  436.07   42.78
  -3   8   2   49.64   15.96
   3   8   2   86.79   13.18
   3   8  -2   80.15   13.50
  -3   8  -2   44.40   12.12
  -3   8   3  643.98   40.44
   3   8  -3  718.84   52.19
  -3   8  -3  698.97   52.04
  -3   8  -3  618.06   40.60
  -3   8   3  744.07   67.49
  -3   8   4 4742.82  275.28
   3   8  -4 5171.29  290.26
  -3   8  -4 4581.75  276.53
  -3   8   4 4879.89  279.56
  -3   8  -4 4826.86  287.06
  -3   8  -4 4794.10  274.55
  -3   8   5   -6.43   18.86
  -3   8  -5    1.03    2.80
  -3   8  -5    1.06    3.63
   3   8  -5   -2.66    6.65
  -3   8   5   -1.24    2.70
  -3   8   5   -0.74    4.07
  -3   8  -5    2.24    5.60
  -3   8  -6   63.50    7.07
  -3   8   6   74.33   10.00
  -3   8  -6   68.27    9.70
  -3   8   6   64.87    8.94
   3   8  -6   62.81   13.81
  -3   8  -6   61.56   12.40
  -3   8   7  540.27   34.20
  -3   8  -7  511.11   33.62
  -3   8   7  519.18   38.09
  -3   8   7  587.54   37.72
  -3   8  -7  525.31   38.32
   3   8  -7  544.27   45.21
   3   8   7  484.95   43.53
   3   8   7  485.54   37.00
  -3   8  -7  511.90   42.43
   3   8   8 2613.36  163.20
  -3   8   8 2714.97  152.90
  -3   8  -8 2505.14  149.55
  -3   8  -8 2544.31  155.26
   3   8  -8 2537.95  161.94
   3   8   8 2490.48  153.47
   3   8   9   32.73    8.40
  -3   8   9   36.40    5.94
   3   8  -9   41.98   10.88
  -3   8  -9   41.58    8.48
   3  -8   9   24.93    9.81
   3   8   9   27.85    9.10
  -3   8  10   71.52    8.74
   3   8 -10   96.24   16.32
   3  -8  10  102.75   16.38
  -3   8  11  149.45   13.65
   3  -8  11  167.62   21.55
  -3   8  11  149.08   14.43
   3   8 -11  134.69   20.27
   3   8  11  186.96   17.28
  -3  -8  12 2026.54  112.19
   3  -8  12 1991.72  112.63
   3   8  12 1807.12  116.55
   3   8 -12 1907.61  126.15
   3  -8  12 2002.65  125.88
  -3   8  12 1628.86  113.46
  -3   8  12 1915.57  113.42
  -3  -8  13  188.71   13.69
   3  -8  13  150.87   20.94
   3   8 -13  154.33   22.23
   3   8  13  139.65   16.63
   3  -8  13  163.07   13.66
  -3   8  13  146.91   14.89
  -3   8  13  168.56   14.72
   3  -8  14  104.01    9.97
   3   8  14   97.21   13.10
  -3   8  14   85.21   10.86
  -3  -8  14   95.18    9.52
   3   8 -14   86.92   16.76
  -3   8  14  104.36   10.91
  -3  -8  14  108.69    9.68
  -3   8 -14   96.52   15.29
  -3  -8  15   81.73    8.65
  -3   8  15   67.03    9.86
  -3  -8  15  102.55    9.23
   3   8 -15   91.29   16.92
  -3   8 -15   82.04   11.40
  -3   8  15   98.50   10.41
   3  -8  15   99.05    9.38
  -3   8 -16 1118.08   69.78
  -3  -8  16 1176.42   66.70
  -3  -8  16 1091.40   66.23
  -3   8  16 1028.05   67.97
  -3   8  16 1031.05   67.20
   3  -8  16 1125.68   66.76
   3  -8  17  102.58    9.36
  -3   8 -17   88.40   11.64
  -3   8  17   96.13   10.18
  -3  -8  17  110.10    9.43
  -3  -8  17   96.69    8.89
  -3  -8  18   15.17    3.70
   3  -8  18    3.04    3.04
  -3   8  18    8.05    3.54
  -3   8 -18   13.00    5.22
   3  -8  19    6.20    2.72
  -3  -8  19    2.84    2.20
  -3   8 -19    0.73    3.90
  -3   8 -20  587.87   37.44
  -3   8 -21  113.90    9.41
  -3   9   0  216.25   16.29
  -3   9   0  254.50   30.57
  -3   9  -1 1411.73   84.91
   3   9   1 1457.86   95.74
  -3   9  -1 1314.05   99.89
  -3   9   1 1616.09  107.81
  -3   9   2  510.65   35.35
  -3   9  -2  553.76   35.44
  -3   9  -2  613.27   49.96
  -3   9   2  621.52   57.71
   3   9   2  657.36   46.59
  -3   9  -3 1331.57   79.91
  -3   9   3 1296.73   80.30
  -3   9  -3 1357.88   94.23
  -3   9  -4  664.80   40.49
  -3   9   4  603.76   41.03
  -3   9   4  646.30   45.59
  -3   9  -4  611.31   52.23
  -3   9   5 1299.84   78.99
  -3   9   5 1312.87   81.18
  -3   9  -5 1442.93   79.62
  -3   9   5 1333.31   84.82
  -3   9  -5 1309.10   81.18
  -3   9  -5 1201.34   81.74
  -3   9  -5 1244.95   91.26
  -3   9  -6   -2.59    6.86
  -3   9   6   10.70    5.27
   3   9   6    7.84    6.44
  -3   9  -6   -1.02    4.44
  -3   9  -6    3.87    3.43
  -3   9  -6    5.70    3.07
  -3   9   6    2.57    3.01
   3   9   6    2.57    5.57
  -3   9   6   -1.50    3.24
  -3   9   7  759.51   46.72
  -3   9  -7  675.96   49.08
  -3   9  -7  731.95   50.88
  -3   9   7  839.45   50.71
  -3   9  -7  722.22   46.14
   3   9   7  754.10   58.89
   3   9   7  748.88   51.41
  -3   9  -7  640.33   55.33
  -3   9  -8    8.66    3.59
  -3   9   8   12.00    6.13
   3   9   8   14.02    6.59
  -3   9  -8   10.32    4.74
   3   9   8   20.18    9.21
   3   9   9  789.65   66.01
  -3   9  -9  854.19   58.68
   3   9   9  907.90   58.57
  -3   9   9  858.68   53.96
  -3   9   9  840.04   54.03
  -3   9  10  865.33   53.25
  -3   9 -10  742.84   57.38
   3  -9  10  921.24   65.06
  -3   9  11  530.66   34.96
  -3   9 -11  456.99   39.30
   3  -9  11  558.85   45.84
  -3   9  12   49.35    7.95
   3  -9  12   81.30   14.51
   3   9  12   70.76   11.36
  -3   9 -12   75.73   10.96
   3  -9  12   55.05    7.07
  -3  -9  13  799.22   47.78
  -3   9 -13  727.30   50.94
   3  -9  13  747.80   58.80
   3  -9  13  763.40   47.75
   3   9  13  775.35   52.97
  -3   9  13  728.39   49.03
  -3  -9  14   41.69    6.04
   3  -9  14   50.36    6.49
  -3   9  14   47.96    7.62
  -3   9 -14   47.78    8.45
  -3   9  14   30.93    5.91
   3   9  14   37.64    9.69
  -3   9 -15  438.19   31.21
  -3  -9  15  457.43   28.34
  -3   9  15  389.73   28.36
  -3   9  15  398.52   29.25
   3  -9  15  427.46   28.18
   3  -9  16  101.75    9.63
  -3   9 -16  112.66   12.26
  -3  -9  16  123.56   10.06
  -3   9  16   96.67    9.88
  -3   9  16  104.03   10.94
   3  -9  17  223.68   16.28
  -3  -9  17  214.63   16.03
  -3   9 -17  242.50   18.85
  -3  -9  18  237.58   16.74
   3  -9  18  243.92   16.87
  -3   9 -18  248.72   19.09
  -3   9 -19  295.38   19.53
  -3  -9  19  260.32   17.21
   3  -9  19  241.75   17.06
  -3   9 -20   22.67    4.44
  -3   9 -21  102.82    8.03
   3   9 -21   95.65    7.70
  -3  10   0   89.55   20.33
  -3  10   0   80.45    8.84
  -3  10  -1   13.98    9.78
  -3  10   1   -8.17   12.52
  -3  10  -1    6.98    4.05
   3  10   1    2.62    6.14
  -3  10   2  813.16   55.24
  -3  10  -2  909.86   55.40
   3  10   2  957.95   67.64
  -3  10  -2  933.23   71.34
  -3  10  -3  753.34   49.57
  -3  10   3  834.21   48.65
  -3  10   3  746.44   49.39
  -3  10  -3  760.06   48.92
  -3  10  -3  797.41   63.83
  -3  10  -4   59.23   14.52
  -3  10   4   43.48    5.90
  -3  10   4   37.23    6.93
  -3  10  -4   35.48    7.02
  -3  10   4   45.69    9.29
  -3  10  -4   43.56    6.14
  -3  10   5  306.93   23.41
  -3  10   5  312.70   21.12
  -3  10  -5  305.40   23.02
  -3  10  -5  247.13   20.40
   3  10   5  257.08   24.66
  -3  10  -5  299.58   32.58
  -3  10   5  274.77   25.86
  -3  10   5  308.87   20.06
  -3  10   6  810.16   50.10
  -3  10  -6  810.34   52.58
  -3  10  -6  741.33   49.55
  -3  10   6  902.51   53.74
   3  10   6  854.37   63.36
  -3  10   6  836.71   56.72
  -3  10   6  773.82   48.55
   3  10   6  699.42   53.98
  -3  10  -6  864.52   63.40
  -3  10  -7   34.20    5.88
  -3  10  -7   34.48    7.97
   3  10   7   11.11    7.60
   3  10   7   30.06   10.42
  -3  10   7   26.48    5.46
  -3  10   7   30.67    7.53
   3  10   8   18.05    8.42
  -3  10   8   21.51    5.61
  -3  10   8   21.02    6.37
   3  10   8   31.55   11.22
  -3  10  -8   18.08    6.76
  -3  10  -8   20.01    4.87
  -3  10   9  358.89   25.22
  -3  10  -9  347.44   27.39
   3  10   9  353.70   36.90
  -3  10   9  288.29   24.05
   3  10   9  387.66   30.29
  -3  10  10  684.21   45.39
   3 -10  10  704.48   56.01
   3  10  10  707.50   50.58
   3 -10  11  848.08   62.92
  -3  10  11  781.26   51.41
   3 -10  12    7.83    6.53
  -3  10  12    0.94    4.64
  -3 -10  13   28.85    5.17
   3  10  13   26.09    8.90
  -3  10  13   18.99    6.20
   3 -10  13   20.66    4.72
   3 -10  14  377.72   25.69
   3  10  14  382.76   31.11
  -3  10  14  365.07   27.34
  -3 -10  14  401.80   25.77
  -3  10 -14  356.03   28.06
  -3 -10  15    4.57    3.31
   3 -10  15   -0.59    3.20
  -3  10 -15    3.00    4.85
  -3  10  15   -0.86    4.21
  -3 -10  16    8.40    3.06
  -3  10  16    7.68    4.56
  -3  10 -16    6.36    4.96
   3 -10  16    1.07    2.69
  -3 -10  17  437.57   26.45
   3 -10  17  398.12   26.24
  -3  10  17  397.78   27.31
  -3  10 -17  378.83   28.14
  -3  10 -18  192.55   15.05
   3 -10  18  177.59   12.93
  -3 -10  18  176.47   12.89
  -3  10 -19    7.12    3.31
  -3  10 -20    3.23    2.54
   3  10 -20    5.63    2.36
  -3  11   0  181.85   15.22
  -3  11   0  176.40   14.43
  -3  11   1    3.10    3.07
  -3  11  -1   10.24    3.89
  -3  11  -1    9.64    4.88
   3  11   1   -3.11    7.28
  -3  11   2   22.92    4.31
  -3  11  -2   21.64    5.04
  -3  11  -2   11.98    4.87
  -3  11   2   21.85    5.62
  -3  11   3   51.35    6.91
  -3  11  -3   57.68    8.01
  -3  11   3   68.50    8.92
  -3  11   3   69.59   12.40
   3  11  -3   57.98   16.22
   3  11   3   70.69    9.33
  -3  11  -3   51.07    7.90
  -3  11   3   62.65    6.97
  -3  11   4  274.94   20.15
  -3  11  -4  259.12   21.52
  -3  11  -4  275.11   20.55
   3  11  -4  279.66   32.34
  -3  11   4  263.45   21.40
  -3  11   4  275.47   19.27
   3  11   4  287.65   23.57
  -3  11   4  269.82   26.57
  -3  11   5    1.95    4.23
  -3  11   5    2.73    2.46
  -3  11   5    4.32    5.49
   3  11   5   -1.42    6.66
  -3  11  -5    5.20    4.60
   3  11  -5    6.61    8.26
  -3  11   5    1.47    3.13
  -3  11  -5   -4.55    4.08
  -3  11   6   75.23    8.31
  -3  11  -6   43.73    7.10
  -3  11   6   54.76    9.83
  -3  11  -6   61.94    9.52
   3  11  -6   82.91   17.02
   3  11   6   70.61   12.50
  -3  11   6   58.21    6.57
   3  11   6   57.47   14.23
   3  11  -7    3.06    6.64
  -3  11   7    7.31    6.01
  -3  11   7    2.47    3.79
  -3  11  -7    8.66    3.73
   3  11   7   -1.75    7.27
  -3  11  -7    5.80    5.44
   3  11   7    9.92    7.74
   3  11  -8  147.79   21.83
  -3  11  -8  177.04   16.61
  -3  11  -8  164.79   13.56
  -3  11   8  131.10   14.02
  -3  11   8  168.61   15.99
   3  11   8  162.44   19.67
   3  11   8  164.22   24.35
  -3  11   9   39.81    7.94
   3  11   9   49.19   14.14
  -3  11   9   50.27    7.58
   3  11   9   48.85   11.69
  -3  11  -9   50.25    8.74
   3  11  -9   40.36   11.42
  -3  11  10  466.07   32.98
   3  11 -10  456.73   42.66
   3 -11  10  460.40   42.31
  -3  11 -10  488.10   34.57
   3  11  10  451.62   38.18
  -3  11 -11   11.55    6.07
   3  11 -11    5.70    6.20
  -3  11  11   17.82    6.09
   3 -11  11    5.34    6.71
   3  11  11   10.95    8.41
   3  11 -12   17.01    9.07
   3 -11  12   17.81    8.15
  -3  11  12   10.91    5.46
  -3 -11  13  108.21    9.44
  -3  11  13   85.05   10.89
   3 -11  13   96.81    9.24
   3 -11  14  311.81   21.74
  -3 -11  14  335.22   21.89
   3  11  14  291.38   26.84
  -3  11  14  295.34   23.52
  -3 -11  15    3.73    3.09
   3 -11  15   -2.70    3.54
  -3  11  15    8.50    4.70
  -3  11 -16   88.71   10.12
   3 -11  16  106.86    8.69
  -3  11  16   73.60    9.18
  -3 -11  16   86.81    8.17
  -3 -11  17   18.95    3.41
  -3  11  17   16.20    4.38
  -3  11 -17   17.54    5.01
   3 -11  17   14.45    3.20
  -3 -11  18   80.67    6.44
   3 -11  18   58.31    5.94
  -3  11 -18   75.17    7.78
   3  11 -19    0.71    1.95
  -3  11 -19   -0.44    2.41
  -3  11 -20   34.84    3.91
  -3  12   0   89.47   10.43
   3  12   0  108.37   21.47
  -3  12   0   92.22    9.72
   3  12   1  358.98   40.09
  -3  12  -1  377.56   27.43
  -3  12  -1  384.97   26.85
  -3  12   1  378.59   26.01
  -3  12   2   31.45    5.39
  -3  12  -2   36.30    6.50
  -3  12   2   31.73    6.79
   3  12   2   38.85    6.71
  -3  12  -2   31.93    6.84
  -3  12   3    5.68    4.89
  -3  12   3    1.81    2.82
  -3  12  -3    0.84    4.42
  -3  12  -3    7.52    4.40
  -3  12   3    4.52    4.90
  -3  12   3    4.58    3.58
   3  12   3    1.01    4.89
  -3  12  -4  164.76   15.44
  -3  12   4  146.72   13.68
  -3  12  -4  157.40   14.07
  -3  12   4  158.03   15.14
   3  12  -4  165.42   25.95
  -3  12   4  160.56   12.88
  -3  12   4  184.25   21.17
   3  12   4  166.39   16.68
   3  12   5   10.44    8.22
  -3  12   5   22.71    5.09
  -3  12   5   22.93    4.20
  -3  12  -5   19.75    5.29
  -3  12   5   15.40    6.39
  -3  12  -5   23.74    6.06
   3  12   5    5.61    7.00
   3  12  -5   13.79    8.69
  -3  12   6  138.83   12.70
  -3  12  -6  125.46   13.86
  -3  12  -6  126.34   12.25
  -3  12   6  140.56   14.69
   3  12  -6  122.28   20.90
  -3  12   6  116.36   10.66
   3  12   6  154.83   17.63
   3  12   6  109.74   20.62
  -3  12   7  905.15   58.47
  -3  12  -7  978.33   60.84
  -3  12  -7  868.39   57.23
  -3  12   7  991.71   61.02
   3  12   7  930.97   74.42
   3  12  -7  932.24   72.28
   3  12   7  891.53   64.18
  -3  12   7  954.53   60.17
  -3  12  -8  243.90   22.80
  -3  12   8  290.90   22.94
   3  12   8  228.48   31.12
  -3  12   8  299.88   23.31
   3  12  -8  279.27   31.59
   3  12   8  268.87   27.33
  -3  12  -8  311.94   21.03
  -3  12   9   10.48    4.35
   3  12   9   14.16    9.15
  -3  12  -9   10.28    6.10
  -3  12  -9   14.57    4.11
   3  12   9   11.16    9.33
   3  12  -9   11.66    7.76
  -3  12   9    8.49    4.74
   3  12 -10   68.56   14.26
  -3  12 -10   55.75    9.52
   3 -12  10   65.21   13.18
   3  12  10   75.38   15.15
  -3  12  10   55.84    9.21
   3  12 -11   42.09   11.43
  -3  12 -11   47.53    8.72
   3 -12  11   46.90   11.62
  -3  12  11   46.99    8.20
   3  12  11   67.25   14.15
   3  12  12  149.34   18.95
  -3  12 -12  120.73   13.30
   3  12 -12  123.40   19.27
  -3  12  12  131.58   13.84
  -3 -12  13  552.60   33.11
   3 -12  13  542.83   33.07
  -3  12 -13  432.77   34.53
  -3  12  13  466.53   34.91
  -3  12  14    2.74    4.53
  -3 -12  14   10.73    3.22
   3 -12  14   10.28    3.39
   3 -12  15  153.60   11.99
  -3 -12  15  153.37   11.99
  -3  12  15  164.30   14.21
  -3 -12  16   42.01    4.97
  -3  12  16   27.19    5.87
   3  12 -16   29.37    5.47
   3 -12  16   38.22    4.76
   3 -12  17   34.38    4.30
  -3  12  17   36.06    5.53
   3  12 -17   32.26    4.78
  -3 -12  17   26.94    3.90
   3  12 -18    4.37    1.99
  -3  12 -19   44.13    4.67
   3  13   0  792.65   71.24
  -3  13   0  796.23   52.95
  -3  13   0  854.99   52.21
  -3  13   1  151.79   13.14
  -3  13  -1  180.39   14.65
   3  13   1  152.48   25.52
  -3  13  -1  132.76   13.80
  -3  13  -2  282.21   21.45
  -3  13   2  281.07   21.10
  -3  13  -2  278.02   21.36
  -3  13   2  259.58   29.03
  -3  13   2  251.26   21.11
  -3  13   2  274.18   19.91
  -3  13  -3  192.07   17.16
  -3  13   3  213.69   16.81
   3  13   3  201.22   15.72
  -3  13   3  204.88   17.42
  -3  13  -3  182.99   16.35
   3  13   3  209.24   17.64
  -3  13   3  189.19   15.26
  -3  13   3  177.17   22.71
   3  13   4   22.90    4.53
  -3  13   4   10.37    3.35
  -3  13   4   17.20    4.89
  -3  13  -4   14.14    4.95
  -3  13  -4   21.74    6.27
   3  13   4   15.75    6.19
  -3  13   4   10.11    5.51
  -3  13   5  349.75   25.40
  -3  13  -5  342.28   26.54
   3  13  -5  357.70   39.02
   3  13   5  330.61   38.60
  -3  13  -5  332.08   24.51
  -3  13   5  331.40   23.32
  -3  13   5  348.46   26.51
   3  13   5  370.12   28.28
  -3  13   6  875.40   56.28
  -3  13  -6  875.91   57.60
   3  13   6  800.71   71.06
  -3  13  -6  826.75   54.93
  -3  13   6  961.64   58.45
   3  13  -6  848.44   69.74
   3  13   6  987.72   61.27
  -3  13   7  103.00   11.33
   3  13  -7  110.30   19.96
  -3  13   7   99.73   12.47
  -3  13  -7  116.68   12.58
  -3  13  -7   97.37   10.18
  -3  13   7  104.27   12.52
   3  13   7   91.24   14.71
   3  13   7   81.76   18.79
  -3  13  -8  546.05   37.40
  -3  13   8  499.34   37.23
  -3  13   8  523.57   36.86
  -3  13  -8  542.95   34.70
   3  13  -8  537.39   47.40
   3  13   8  440.89   48.55
   3  13   8  542.17   42.30
  -3  13   9  255.64   21.69
  -3  13  -9  259.79   21.32
   3  13   9  231.84   31.83
  -3  13  -9  260.13   18.79
   3  13  -9  198.66   26.83
   3  13   9  287.41   27.83
   3  13  10   -2.07    9.15
  -3  13 -10    2.05    4.80
   3  13 -10   11.12    7.38
   3 -13  10    7.94    6.63
  -3  13  10    2.23    5.21
   3  13  11   44.57   12.59
  -3  13 -11   35.38    7.27
  -3  13  11   36.77    8.22
   3  13 -12   68.68    7.92
   3  13  12   87.81   15.73
  -3  13 -12   67.82    9.43
  -3  13  12   77.60   10.43
  -3  13 -13  153.55   15.03
  -3 -13  13  201.91   14.10
   3 -13  13  198.51   13.99
   3  13 -13  156.88   13.85
  -3  13  13  179.87   16.16
  -3 -13  14  723.67   42.01
   3  13 -14  607.72   41.99
   3 -13  14  715.69   41.99
  -3  13 -14  705.35   44.06
  -3  13  14  628.22   44.04
  -3 -13  15   18.13    3.81
   3 -13  15   26.50    4.12
  -3  13  15   18.20    5.35
   3  13 -15   25.41    4.49
  -3  13 -15   23.61    5.29
  -3 -13  16    9.92    2.71
   3 -13  16    7.74    2.48
  -3  13 -16    4.72    3.25
   3  13 -16    6.86    2.57
  -3  13  16    6.27    3.66
  -3  13 -17  107.71    8.76
  -3  13  17   85.40    8.21
  -3  14   0 1446.09   88.05
  -3  14   0 1447.47   86.88
   3  14   0 1307.80  109.20
   3  14  -1  446.02   49.56
  -3  14  -1  431.29   29.52
  -3  14   1  399.99   27.94
  -3  14  -1  397.39   28.54
  -3  14   2   62.92    9.04
  -3  14   2   61.90    7.72
  -3  14   2   70.39    9.55
  -3  14   2   86.93   16.46
  -3  14  -2   68.42    8.98
  -3  14  -2   73.64    9.22
  -3  14   3   11.03    4.96
   3  14   3    3.76    3.67
  -3  14  -3   11.55    4.91
  -3  14   3    7.11    3.64
  -3  14  -3    6.00    4.56
  -3  14   3    4.73    4.75
   3  14   3    8.11    5.18
  -3  14  -4 1881.43  108.09
   3  14   4 1662.77  105.34
  -3  14   4 1779.88  107.19
  -3  14  -4 1752.00  106.29
   3  14   4 1702.53  127.47
   3  14   4 1846.71  108.08
  -3  14   4 1799.14  107.54
  -3  14   5   16.00    6.16
  -3  14  -5   20.51    6.18
  -3  14  -5   19.37    5.29
  -3  14   5   18.56    5.87
   3  14   5   21.35    7.05
   3  14   5   25.68   12.02
  -3  14   6   26.88    6.40
  -3  14  -6   15.49    5.02
  -3  14   6   17.20    6.41
  -3  14  -6   21.63    6.35
   3  14   6   29.86    8.57
   3  14   6   16.79    9.89
  -3  14   7  798.57   54.84
  -3  14  -7  879.87   55.72
   3  14   7  975.00   60.03
  -3  14   7  877.52   57.39
  -3  14   7  873.63   56.03
   3  14  -7  842.47   67.33
   3  14   7  792.75   71.84
  -3  14  -7  827.96   53.27
   3  14  -8 1573.37  116.61
  -3  14   8 1615.88  107.02
  -3  14  -8 1835.28  106.24
   3  14   8 1571.82  122.72
  -3  14  -8 1749.83  103.63
   3  14   8 1985.99  112.24
   3  14   9   15.70   10.43
   3  14   9    1.85    9.29
   3  14  -9    5.50    5.99
  -3  14  -9   15.27    5.63
  -3  14   9   16.68    6.78
   3  14  10    9.67    9.69
  -3  14 -10    8.22    4.88
  -3  14  10   11.47    5.94
   3  14  11   15.39   10.25
  -3  14 -11   18.12    5.64
  -3  14  11   17.42    6.32
  -3  14 -12  915.45   62.05
  -3 -14  12 1064.77   60.76
   3 -14  12 1089.29   60.87
   3  14  12 1005.16   69.19
  -3  14  12  865.45   63.06
  -3  14 -13  293.63   22.00
  -3 -14  13  332.42   20.75
   3 -14  13  305.75   20.48
   3  14  13  305.63   27.76
  -3  14  13  263.78   22.63
  -3 -14  14   22.92    3.82
   3 -14  14   27.33    4.13
  -3  14 -14   18.46    4.51
  -3  14  14   19.41    5.64
  -3  14 -15  104.72    9.87
  -3 -14  15  118.42    8.87
   3 -14  15  113.44    8.77
  -3  14  15  107.74   10.61
  -3  14 -16  483.20   28.11
  -3  14  16  386.99   28.03
  -3  14 -17   13.91    2.78
  -3  15   0  153.32   13.59
  -3  15   0  117.98   11.85
   3  15   0  118.14   25.56
  -3  15   1  218.08   28.67
  -3  15   1  287.37   21.24
  -3  15  -1  242.10   19.59
   3  15  -1  181.20   32.31
  -3  15  -1  260.59   19.30
  -3  15   1  226.26   18.18
   3  15  -2    4.83    9.59
   3  15   2   17.07    5.07
  -3  15  -2   17.68    5.01
  -3  15  -2   12.88    5.27
  -3  15   2   15.26    5.56
  -3  15   2   11.87    5.24
  -3  15   3  398.76   29.47
   3  15   3  376.38   28.24
  -3  15   3  412.25   29.26
   3  15   3  446.11   29.19
  -3  15  -3  402.41   28.75
  -3  15  -3  424.95   29.18
   3  15   4  137.35   12.83
  -3  15   4  159.81   14.59
   3  15   4  137.69   25.77
  -3  15  -4  129.04   12.56
  -3  15   4  149.69   13.92
   3  15   4  135.84   13.82
  -3  15  -4  148.36   13.92
  -3  15  -5  122.30   12.19
  -3  15   5  121.09   12.66
   3  15   5  105.57   12.65
  -3  15   5  126.32   12.79
   3  15   5  105.63   22.46
  -3  15  -5  106.82   11.02
  -3  15   6   31.59    6.83
   3  15   6   32.57    7.68
  -3  15  -6   39.83    6.14
  -3  15   6   32.30    7.42
   3  15   6   35.48   14.81
  -3  15  -6   38.22    7.07
  -3  15  -7  396.93   27.12
  -3  15   7  369.79   29.14
   3  15   7  397.90   44.04
  -3  15  -7  325.26   24.96
   3  15   7  417.83   30.16
  -3  15   8  148.26   15.62
  -3  15  -8  133.20   13.14
   3  15   8  156.55   17.43
  -3  15  -9  253.68   19.52
   3  15   9  234.05   23.48
  -3  15   9  258.26   21.93
  -3  15 -10  273.58   20.78
   3  15  10  285.18   26.29
  -3  15  10  284.33   23.39
  -3  15 -11  152.40   13.45
  -3  15  11  144.70   15.16
   3 -15  12    4.59    2.30
  -3  15 -12   -0.66    3.84
  -3  15  12    5.78    5.11
  -3 -15  12    3.22    2.44
  -3  15 -13  130.07   11.60
  -3 -15  13  138.21   10.59
   3 -15  13  138.93   10.57
  -3  15  13  150.32   13.48
  -3  15 -14  129.92   10.18
  -3 -15  14  120.29    8.93
   3 -15  14  107.75    8.80
  -3  15  14  100.07   10.93
  -3  15 -15  100.71    8.26
  -3  15  15   85.06    8.94
  -3  15 -16   39.58    4.09
  -3  15  16   28.12    4.45
   3  16   0    5.13   10.15
  -3  16   0    1.06    4.57
  -3  16   0   -0.85    4.37
   3  16   1   -4.52    4.15
  -3  16  -1    2.07    2.93
  -3  16  -1   -2.51    4.19
   3  16  -1   -4.91    8.69
  -3  16   1   -2.08    4.59
   3  16   2   71.54    9.17
  -3  16   2   80.09   10.18
  -3  16   2   85.32    9.67
  -3  16  -2   76.06    9.24
  -3  16  -2   78.69    8.75
   3  16  -2   73.88   19.23
   3  16   3  290.27   23.01
  -3  16   3  340.24   24.77
  -3  16   3  376.70   25.67
   3  16  -3  210.13   33.76
  -3  16  -3  271.01   22.50
  -3  16   3  345.93   23.96
  -3  16  -3  336.11   23.09
  -3  16   4   14.61    6.42
   3  16   4   15.11    4.74
  -3  16  -4   14.37    4.31
  -3  16   4   18.15    6.23
   3  16   4   14.47    4.84
  -3  16  -4   11.98    4.22
  -3  16   4   15.00    5.35
  -3  16   5  173.82   16.36
  -3  16  -5  176.59   14.89
  -3  16   5  188.51   16.29
  -3  16   5  212.95   18.40
   3  16   5  168.05   15.89
  -3  16  -5  200.26   15.67
   3  16   6   76.73   10.18
  -3  16  -6   73.30    8.69
  -3  16  -7   70.19    8.28
   3  16   7   71.19    9.95
   3  16   8   -1.15    5.95
  -3  16  -8    1.37    3.21
  -3  16   8   -8.35    6.24
  -3  16  -9   89.98    9.18
  -3  16   9   73.60   11.02
   3  16  10   61.80   10.77
  -3  16  10   51.95    9.55
  -3  16 -10   53.27    6.76
  -3  16 -11  420.18   28.92
   3  16  11  503.53   34.73
  -3  16  11  456.02   32.03
  -3 -16  12    2.27    2.30
   3 -16  12    2.26    2.21
  -3  16  12    3.49    4.82
  -3  16 -12    3.48    2.95
  -3 -16  13   31.49    3.72
   3 -16  13   29.32    3.63
  -3  16 -13   17.55    3.80
  -3  16  13   27.58    5.87
  -3  16 -14   17.79    3.15
  -3  16  14   23.69    5.02
  -3  16  15   -0.45    2.70
  -3  16 -15   -0.47    1.43
  -3  17   0   52.03    8.63
  -3  17   0   71.11    8.18
  -3  17   0   54.59    7.92
   3  17   0   64.37    8.35
  -3  17   1   40.51    7.03
  -3  17   1   63.35    9.08
   3  17   1   32.33    6.50
  -3  17  -1   45.46    7.03
  -3  17  -1   40.59    7.52
   3  17   2   47.70    7.40
  -3  17   2   48.79    8.18
  -3  17  -2   43.57    6.99
   3  17   3   83.32    9.92
  -3  17   3  106.56   11.92
  -3  17   3  113.02   11.55
  -3  17  -3  100.41    9.23
  -3  17   4  232.18   20.23
  -3  17   4  275.12   21.03
  -3  17  -4  248.60   17.95
   3  17   5   25.08    5.40
  -3  17  -5   25.50    4.59
  -3  17   5   35.94    6.38
  -3  17   5   20.67    7.12
  -3  17  -6   14.09    3.68
   3  17   6    7.69    4.02
  -3  17   6   17.08    6.37
   3  17   7   27.01    6.23
  -3  17  -7   25.55    4.48
   3  17   8   62.26    8.36
  -3  17  -8   42.45    5.55
   3  17   9  106.29   11.34
  -3  17   9   78.34   10.71
  -3  17  -9   80.21    7.70
   3  17  10  321.67   23.50
  -3  17  10  322.85   23.61
  -3  17 -10  281.82   19.74
  -3 -17  11    1.03    2.27
   3 -17  11    0.34    2.30
  -3  17 -11    5.58    2.57
  -3  17  11    0.86    4.55
  -3  17 -12   30.68    3.67
  -3  17  12   18.49    5.09
  -3  17  13   54.07    6.86
  -3  17 -13   46.69    4.26
  -3  17  14   68.09    6.83
  -3  18   0  455.07   31.94
   3  18   0  439.67   30.25
  -3  18   0  464.42   30.10
   3  18   1  160.17   14.50
  -3  18   1  181.69   16.40
  -3  18  -1  200.63   16.35
   3  18  -1  191.73   15.03
  -3  18   1  206.07   15.32
  -3  18  -1  174.93   14.21
  -3  18  -2   23.27    4.58
   3  18   2   35.82    5.62
  -3  18  -2   32.20    6.78
   3  18  -2   32.23    5.49
  -3  18   2   49.12    8.00
  -3  18   2   36.12    6.13
  -3  18  -3   37.48    5.28
  -3  18   3   46.07    7.81
  -3  18  -3   46.43    7.32
  -3  18   3   43.73    6.80
  -3  18   4  458.53   30.39
  -3  18   4  439.87   30.86
  -3  18  -4  445.24   30.06
  -3  18  -4  417.96   27.51
  -3  18   5    8.50    4.95
   3  18   6   19.10    4.38
  -3  18   6    8.77    5.50
   3  18   7  364.66   24.16
  -3  18  -7  331.82   22.22
  -3  18  -8  368.83   22.98
  -3  18  -9   -0.26    1.48
  -3  18  10    2.31    4.20
  -3  18  11   37.11    6.33
  -3  18 -12  207.80   14.24
  -3  18  12  289.12   17.47
  -3  18  13  101.79    8.58
  -3  19   0  526.43   33.41
   3  19   0  498.33   33.20
  -3  19   0  592.84   35.89
  -3  19   1  102.65    8.83
  -3  19  -1   81.81    7.91
  -3  19   1   81.79    9.65
  -3  19  -1  112.39   10.53
   3  19  -1   75.76    7.90
  -3  19   2   92.83    9.16
  -3  19  -2   95.65    8.28
  -3  19   2  104.25   10.78
  -3  19  -2  102.12   10.26
   3  19  -2  104.28    8.82
  -3  19  -3   69.56    7.88
   3  19  -3   55.44    6.30
  -3  19   3   68.02    8.71
  -3  19   3   72.03    7.81
   3  19  -4    4.83    2.66
  -3  19  -4   19.01    4.37
  -3  19   4   12.50    4.24
  -3  19  -5   97.56    9.49
  -3  19   5  118.63   10.53
  -3  19  -6  482.35   30.83
  -3  19   6  481.47   31.90
  -3  19  -7   89.10    8.13
  -3  19   7  101.11    9.86
  -3  19  -8  238.11   16.00
  -3  19   8  227.40   17.50
  -3  19  -9    9.60    2.51
  -3  19 -10    0.52    1.44
  -3  19  11  119.83    9.75
  -3  20   0   54.93    6.64
  -3  20   0   45.62    4.88
  -3  20   1  271.20   19.55
  -3  20  -1  278.65   19.36
  -3  20   1  271.71   18.05
  -3  20   2   76.23    7.92
  -3  20  -2   71.81    7.36
  -3  20   2   65.73    6.63
   3  20  -3    0.26    1.54
  -3  20   3    4.16    2.55
  -3  20  -3    0.49    2.76
   3  20  -4   52.75    5.05
  -3  20  -4   73.11    6.63
  -3  20   4   73.41    6.77
  -3  20  -5   37.43    4.64
   3  20  -5   34.32    3.58
  -3  20   5   39.45    5.07
  -3  20  -6  146.47   10.82
  -3  20   6  149.38   11.38
  -3  20  -7  339.18   23.09
  -3  20   7  425.39   24.33
  -3  20  -8  110.37    8.52
  -3  20   8  143.48    9.84
  -3  21   0  175.97   12.64
  -3  21  -1    6.79    2.53
  -3  21  -2    0.71    1.93
  -3  21  -3    6.15    2.28
  -3  21  -4   31.53    3.63
  -3  21  -5    1.75    1.40
   4   0   0 2337.60  137.13
   4   0  -1    0.47    2.06
   4   0   1    4.40    3.04
   4   0  -1    0.54    2.01
   4   0   2 2668.55  164.45
   4   0  -2 2595.00  157.08
   4   0   2 2680.20  159.25
   4   0  -2 2821.46  156.68
   4   0  -3    1.38    2.87
   4   0  -3    0.62    1.26
   4   0   3    0.96    2.93
   4   0   3   -1.72    5.90
   4   0  -4   17.40    5.07
   4   0   4    9.37    6.68
   4   0   5   -2.03    6.71
   4   0   6 5406.48  313.80
   4   0   6 5256.53  318.39
   4   0   7    4.99    6.24
   4   0   7    2.37    6.29
  -4   0   7   -2.58    4.28
  -4   0   8 1964.34  117.94
   4   0   8 2123.31  118.03
   4   0   8 2086.62  129.42
  -4   0   8 2041.06  125.33
  -4   0   9    2.61    1.94
   4   0   9    1.25    1.46
   4   0   9   -2.22    7.09
  -4   0  10  179.80   12.99
   4   0  10  192.59   13.04
  -4   0  10  183.10   17.10
   4   0  10  167.98   22.02
  -4   0  11    0.90    2.14
   4   0  11   -0.43    2.23
  -4   0  11    3.17    4.57
   4   0  11   -2.85    6.68
  -4   0  12  279.09   19.03
   4   0  12  272.06   18.86
  -4   0  12  264.21   21.84
   4   0  13    1.72    2.10
  -4   0  13    4.09    2.59
  -4   0  13   -1.02    4.50
  -4   0  14 2125.36  129.68
  -4   0  14 2304.67  132.76
   4   0  14 2234.60  130.01
  -4   0  15    6.92    3.07
  -4   0  15    3.03    5.22
   4   0  15    3.74    2.74
  -4   0  16   35.62    5.95
  -4   0  16   45.79    8.16
   4   0  16   54.72    7.43
  -4   0  17    0.70    3.22
   4   0  17    4.25    4.33
  -4   0  17    2.86    3.67
  -4   0  18  104.68   10.06
   4   0  18  106.25   10.94
  -4   0  18  124.36   11.89
  -4   0  19   -5.63    3.70
   4   0  19   -2.90    4.54
  -4   0  19    4.59    3.77
  -4   0  20  456.86   27.60
   4   0  20  373.13   26.47
  -4   0  20  390.90   25.80
  -4   0  21   -2.02    2.99
  -4   0  22  229.08   15.51
   4  -1   0    9.90    3.37
   4   1   0   13.74    3.76
   4   1   0    9.56    5.53
   4   1  -1 1399.48   82.54
   4  -1  -1 1350.24   82.35
   4  -1   1 1335.99   83.64
   4   1   1 1350.67   83.16
   4   1  -1 1466.80   82.07
   4   1  -1 1308.88   85.33
   4   1  -2 1448.38   88.63
   4  -1  -2 1431.52   86.48
   4  -1  -2 1449.15   87.49
   4  -1   2 1505.34   90.45
   4   1   2 1604.18   90.01
   4   1  -2 1474.99   90.82
   4   1  -2 1504.24   86.89
   4  -1  -3  287.40   20.58
   4   1  -3  317.34   23.01
   4  -1  -3  327.51   20.24
   4   1   3  291.68   23.04
   4  -1   3  265.80   27.01
   4   1   3  298.93   27.07
   4  -1   3  310.43   23.92
   4   1  -4   19.85    6.47
   4  -1  -4   16.81    2.57
   4  -1  -4   19.67    4.92
   4   1   4   12.68    4.86
   4  -1   4   26.82    8.85
   4   1   4    9.36    7.09
   4   1  -5  435.35   34.93
   4   1   5  409.19   36.00
   4  -1   5  403.63   35.30
   4  -1   6 1927.02  115.95
   4   1   6 1739.86  113.90
   4  -1   6 1902.25  119.02
   4  -1   7 3403.21  207.44
   4   1   7 3341.27  206.10
   4  -1   7 3522.88  210.18
  -4   1   7 3482.89  206.49
  -4  -1   8   12.11    4.44
  -4   1   8   15.60    6.72
  -4  -1   8   15.31    2.51
   4  -1   8   10.11    2.06
   4   1   8   16.41    2.47
   4  -1   8    2.07    6.90
   4   1   8   18.48    7.16
   4   1  -8   12.31    3.33
  -4   1   8   13.31    2.37
  -4  -1   9  207.78   14.94
   4  -1   9  227.05   14.96
   4   1   9  243.29   14.96
   4  -1   9  222.65   24.93
   4   1   9  222.48   24.17
  -4   1   9  219.17   14.81
  -4  -1  10 1356.79   79.20
  -4   1  10 1326.49   78.90
   4   1  10 1358.12   78.86
   4  -1  10 1428.37   94.15
   4  -1  10 1436.82   79.21
  -4  -1  10 1096.24   82.47
   4  -1  11   32.04    4.61
   4   1  11   32.20    4.12
  -4  -1  11   20.59    6.18
   4  -1  11   37.77   11.02
  -4   1  11   25.56    3.96
  -4  -1  11   26.98    4.29
   4  -1  12   18.71    3.90
  -4   1  12   13.04    3.16
   4   1  12   14.35    3.41
  -4  -1  12   11.00    5.00
   4  -1  12    9.38    8.34
  -4  -1  12   17.28    3.58
  -4  -1  13  863.70   53.54
   4  -1  13  854.80   53.65
  -4   1  13  885.91   53.42
   4   1  13  869.25   53.22
  -4  -1  13  875.96   56.25
  -4  -1  14  651.57   41.93
   4  -1  14  693.52   42.54
  -4   1  14  634.95   41.79
   4   1  14  681.48   42.02
  -4  -1  14  643.89   44.15
  -4  -1  15  489.07   33.80
   4  -1  15  521.62   34.67
  -4   1  15  483.76   33.82
   4   1  15  563.23   34.63
  -4  -1  15  563.74   36.55
  -4   1  16    0.73    3.41
   4   1  16    1.59    3.59
  -4  -1  16    0.97    4.39
   4  -1  16   -0.83    3.60
  -4  -1  16    2.77    3.18
  -4  -1  17    1.35    3.32
   4  -1  17    5.06    4.48
  -4   1  17    1.44    3.56
  -4  -1  17   12.95    5.12
  -4   1 -17    7.11    5.93
   4   1  17    5.02    4.26
  -4  -1  18  398.02   26.93
   4  -1  18  401.52   28.08
  -4   1  18  390.26   27.09
   4   1  18  379.70   27.98
  -4  -1  18  449.29   28.98
  -4  -1  19  166.21   13.21
   4  -1  19  162.56   14.10
  -4   1  19  186.21   13.76
   4   1  19  151.33   14.05
  -4  -1  19  198.54   15.11
  -4  -1  20    2.63    2.42
   4  -1  20   -4.92    4.15
  -4  -1  20    3.09    3.54
  -4  -1  21  329.13   22.06
  -4  -1  22  213.33   14.48
   4   2   0 1772.73  105.93
   4   2   0 1805.84  109.41
   4   2   1  322.77   22.66
   4   2  -1  295.47   22.09
   4   2  -1  300.45   21.04
   4   2   1  325.70   22.60
   4   2  -1  273.21   23.34
   4   2   1  332.63   25.78
   4  -2  -2    7.85    1.61
   4   2   2    8.20    3.81
   4   2  -2    6.78    3.63
   4   2  -2    9.14    2.77
   4   2   2    9.57    3.72
   4   2  -2   13.44    4.75
   4  -2  -3  518.88   31.86
   4   2  -3  508.95   36.28
   4  -2   3  528.94   37.44
   4   2   3  551.38   36.12
   4   2  -3  543.50   35.49
   4   2   3  518.38   39.82
   4   2  -3  492.79   32.17
   4   2  -4    2.83    4.34
   4   2   4    6.54    4.83
   4  -2   4    5.99    6.38
   4  -2  -4    8.51    3.51
   4   2  -4    9.10    3.96
   4   2   4    1.93    5.67
   4   2  -5  675.70   54.04
   4  -2   5  799.84   56.36
   4   2  -5  794.71   48.87
   4  -2   6  960.55   65.22
   4   2  -6  996.76   68.12
   4   2  -6  919.88   57.96
   4  -2   6  929.62   66.33
   4  -2   7  492.87   40.11
   4   2  -7  493.86   31.58
   4  -2   7  443.60   39.02
  -4   2   7  509.57   41.12
  -4  -2   8  652.49   39.83
   4  -2   8  647.52   39.70
  -4   2   8  688.81   39.63
   4   2   8  678.54   39.64
   4  -2   8  605.08   50.49
   4  -2   8  627.11   50.34
  -4   2   8  626.68   50.23
  -4  -2   9  463.91   29.43
   4  -2   9  458.83   29.34
  -4   2   9  461.85   29.07
   4   2   9  511.03   29.31
   4  -2   9  485.56   41.58
  -4  -2  10  161.74   11.87
  -4   2  10  151.97   11.31
   4   2  10  164.28   11.47
  -4  -2  10  141.43   14.69
  -4   2  10  149.25   15.65
   4  -2  10  163.55   22.04
   4  -2  10  156.28   11.66
   4  -2  11  451.70   41.12
  -4  -2  11  418.88   27.31
   4   2  11  445.70   26.99
   4  -2  11  443.70   27.51
  -4  -2  11  407.36   30.24
  -4   2  11  372.03   30.38
  -4   2  11  408.15   26.85
  -4  -2  12  104.46   11.86
  -4  -2  12  111.85    9.79
   4  -2  12  106.64    9.78
  -4   2  12  122.95    9.76
   4   2  12  105.02    9.27
  -4   2  12  112.92   12.59
   4  -2  12  117.94   19.27
   4  -2  13  124.51   11.00
  -4   2  13  117.34   10.32
   4   2  13  125.59   10.31
  -4  -2  13  115.88   12.50
  -4   2  13  110.96   12.63
  -4  -2  13  101.69   10.11
   4  -2  13  137.68   21.47
  -4  -2  14  348.72   25.03
   4  -2  14  346.46   25.49
  -4   2  14  359.48   25.00
   4   2  14  391.71   25.21
  -4  -2  14  394.94   27.44
  -4   2  14  369.28   27.75
  -4  -2  15  304.28   21.29
   4  -2  15  285.52   21.89
   4   2  15  301.88   21.39
  -4  -2  15  304.60   23.16
  -4   2  15  304.89   23.69
  -4   2  15  278.74   21.09
  -4   2  16    0.73    3.44
  -4  -2  16    4.03    3.26
   4  -2  16    2.50    3.54
  -4   2  16    3.09    5.39
  -4  -2  16   -0.94    5.40
   4   2  16    2.30    3.53
  -4  -2  17  104.63   10.26
   4  -2  17   69.88    8.76
  -4   2  17   63.82    8.11
   4   2  17   70.33    8.68
  -4  -2  17   71.34    7.99
  -4   2 -17   79.14   11.18
  -4  -2  18   46.06    6.17
   4  -2  18   32.73    6.40
   4   2  18   44.03    7.04
  -4  -2  18   60.89    7.88
  -4   2 -18   51.06    8.11
  -4   2  18   51.26    6.60
  -4   2 -19  179.39   15.74
  -4  -2  19  183.08   14.32
   4  -2  19  192.72   15.36
  -4  -2  19  232.08   16.28
  -4  -2  20  180.18   13.14
   4  -2  20  169.74   13.54
  -4  -2  20  198.75   14.46
  -4  -2  21   44.42    5.40
  -4   2  21   43.42    5.60
  -4  -2  22   27.62    3.69
  -4   2  22   29.64    3.93
   4   3   0   24.42    4.89
   4   3   0   28.51    6.80
   4   3  -1  591.83   40.28
   4   3   1  631.82   40.62
   4   3  -1  601.66   41.41
   4   3   1  604.95   42.91
   4   3  -1  594.24   39.11
   4   3  -2  243.46   18.98
   4   3  -2  279.64   21.49
   4   3  -2  258.60   20.98
   4   3   2  291.80   21.74
   4   3   3  228.32   19.85
   4   3  -3  214.48   19.69
   4   3  -3  229.27   18.42
   4   3   4   31.34    7.40
   4   3  -4   37.03    8.78
   4   3  -4   37.53    6.10
   4   3  -5   29.77    9.05
   4  -3   5   39.36   10.05
   4  -3   5   36.61    9.78
   4   3  -5   38.00    6.05
  -4   3  -5   41.19    3.98
   4   3  -6  295.19   28.59
   4  -3   6  246.85   26.92
   4  -3   6  322.97   28.43
  -4   3  -6  303.22   18.15
  -4   3   6  270.78   18.31
  -4   3   6  298.64   30.30
  -4  -3   7  984.93   62.16
   4  -3   7 1042.95   62.21
  -4   3   7 1067.80   61.93
   4   3   7 1160.72   62.12
   4   3  -7 1178.89   75.87
   4  -3   7 1030.20   74.60
   4  -3   7 1071.88   73.36
  -4   3  -7 1120.68   62.01
  -4   3   7  949.31   62.18
  -4   3   7 1122.87   78.07
  -4   3   8   23.47    9.67
   4   3   8   32.06    3.72
  -4   3   8   28.87    3.55
   4  -3   8   29.59   10.14
  -4  -3   8   31.50    3.95
   4  -3   8   31.29    3.90
   4  -3   8   28.36    8.20
  -4  -3   9    5.24    2.29
   4  -3   9    2.05    2.28
  -4   3   9    3.38    1.78
   4  -3   9    5.29    7.02
   4   3   9    3.80    1.99
   4  -3   9    8.40    5.58
  -4  -3  10   75.77    7.39
  -4   3  10   78.86    7.09
   4   3  10   95.49    7.38
  -4  -3  10   74.18    9.75
  -4   3  10   79.85   11.50
   4  -3  10   87.40   15.85
   4  -3  10   77.20    7.50
  -4  -3  11   84.32    7.91
   4  -3  11   75.98    7.86
  -4   3  11   80.13    7.26
   4   3  11   80.97    7.23
  -4  -3  11   73.45    9.70
  -4   3  11   74.69   10.72
   4  -3  11   61.99   14.75
  -4  -3  12    0.56    2.78
   4   3  12    2.96    2.66
   4  -3  12    6.12    7.16
  -4   3  12    6.67    5.20
  -4   3  12    1.53    2.51
   4  -3  12    3.18    3.43
  -4  -3  12    2.80    4.29
  -4  -3  13  411.18   25.89
  -4   3  13  362.11   25.15
   4   3  13  387.49   25.24
   4  -3  13  376.75   26.21
  -4  -3  13  385.95   27.79
  -4   3  13  324.49   27.66
   4  -3  13  399.80   39.28
  -4  -3  14  183.08   13.61
   4  -3  14  139.72   13.46
  -4   3  14  162.09   13.20
   4   3  14  155.09   12.93
  -4  -3  14  151.90   14.69
  -4   3  14  155.96   15.54
   4  -3  14  158.70   22.97
  -4  -3  15   82.60    8.56
   4  -3  15   76.13    8.97
  -4   3  15   71.92    8.35
   4   3  15   66.78    8.01
  -4  -3  15   82.67    9.59
  -4   3  15   91.40   10.72
  -4   3  16    4.38    3.41
  -4  -3  16    1.30    3.51
   4   3  16   -2.22    3.58
  -4  -3  16    2.72    4.54
  -4   3  16    8.35    5.30
   4  -3  16   -1.65    4.43
   4   3 -16    6.39    7.99
  -4  -3  17   66.82    7.38
   4  -3  17   74.28    8.41
   4   3  17   64.19    8.08
  -4  -3  17   73.94    9.04
  -4   3  17   62.55    9.54
  -4   3 -17   57.51    9.63
  -4   3  17   53.43    7.44
   4  -3  18   18.40    4.78
  -4  -3  18   33.05    5.84
  -4   3  18   18.45    5.65
  -4   3 -18   19.35    6.11
  -4  -3  18   26.25    4.61
  -4  -3  19   -0.97    2.54
   4  -3  19    6.55    3.42
  -4  -3  19   -0.66    3.43
  -4   3  19   -1.52    4.02
  -4   3 -19   -0.78    3.86
  -4  -3  20   17.03    3.29
  -4   3 -20    8.11    3.40
  -4  -3  20   15.26    4.04
  -4   3  20   12.37    4.23
   4  -3  20   12.02    3.17
  -4  -3  21  164.84   12.67
  -4   3  21  188.06   13.30
  -4   3  22   14.16    2.76
  -4  -3  22   13.23    2.60
  -4   4   0 1449.53   83.06
   4   4   0 1359.68   87.47
   4   4  -1  325.62   24.26
   4   4  -1  363.25   25.92
   4   4   1  303.97   24.70
  -4   4  -1  325.92   20.41
   4   4  -2   35.57    7.80
  -4   4  -2   49.71    4.58
  -4   4   2   51.66    4.64
   4   4   2   52.79    8.45
   4   4  -3   28.15    7.44
   4   4   3   19.50    6.15
  -4   4  -3   25.73    3.19
  -4   4   3   27.22    3.45
   4   4   4    5.76    5.10
   4   4  -4    5.50    5.85
  -4   4  -4    2.90    1.75
  -4   4   4    2.31    1.83
   4   4   5   74.65   11.37
   4   4  -5   79.64   13.67
  -4   4   5   69.02    6.16
  -4   4  -5   73.90    5.96
  -4   4   5   65.06   16.00
   4   4  -6  402.48   36.08
   4  -4   6  398.34   36.31
   4  -4   6  390.44   34.48
  -4   4  -6  413.91   24.85
  -4   4   6  391.67   25.19
  -4   4   6  424.55   41.79
  -4   4   7  112.41   20.92
   4   4  -7  121.89   17.88
   4  -4   7  115.10   17.54
  -4   4   7  109.41    8.09
   4  -4   7  104.33   15.24
  -4   4  -7  123.83    8.33
  -4   4   7   91.87    8.43
  -4  -4   8  782.19   49.98
   4  -4   8  842.76   50.45
   4   4   8  914.03   49.92
   4   4  -8  880.98   62.32
   4  -4   8  875.17   60.38
  -4   4   8  826.77   50.38
  -4   4   8  798.11   49.58
   4  -4   8  886.10   64.55
  -4   4   8  838.54   66.69
  -4  -4   9   13.78    3.30
   4  -4   9   12.02    3.38
  -4   4   9   19.12    3.18
   4   4   9   16.28    2.78
   4  -4   9   22.15    9.83
   4   4  -9    9.17    6.78
   4  -4   9   12.01    5.93
   4  -4  10  162.54   13.17
  -4   4  10  174.62   12.45
   4   4  10  172.61   12.46
  -4  -4  10  167.91   12.81
   4   4 -10  217.40   23.36
  -4  -4  10  177.53   15.50
   4  -4  10  178.09   23.65
  -4   4  10  159.21   16.74
  -4  -4  11  210.82   16.24
  -4   4  11  225.02   16.02
   4   4  11  238.62   16.15
  -4  -4  11  238.46   18.94
  -4   4  11  235.57   20.51
   4   4 -11  234.23   26.18
   4  -4  11  231.37   27.94
   4  -4  11  231.15   16.98
  -4  -4  12  113.79   10.11
   4  -4  12   97.85   10.48
   4   4  12  127.36   10.11
  -4  -4  12  124.93   12.29
  -4   4  12  112.61   13.44
   4   4 -12  101.29   17.73
  -4   4  12  126.65   10.13
   4  -4  12  144.88   20.89
  -4   4  13    6.86    5.06
  -4  -4  13    8.95    4.68
  -4  -4  13   -0.60    2.78
   4  -4  13    0.74    3.54
  -4   4  13    0.58    2.86
   4   4  13   -0.56    2.85
   4   4 -13    2.93    7.32
   4  -4  13    6.09    6.59
  -4  -4  14  500.00   32.26
   4  -4  14  453.65   32.80
  -4   4  14  460.03   31.94
  -4  -4  14  545.39   34.40
  -4   4  14  508.40   35.66
   4   4 -14  570.78   47.82
   4  -4  14  489.53   45.26
   4   4  14  490.02   32.02
  -4   4  15   67.01    7.81
   4   4  15   62.45    7.51
  -4  -4  15   50.74    7.09
   4  -4  15   73.75    8.83
  -4  -4  15   60.51    8.81
   4   4 -15   81.41   16.78
  -4   4  15   78.28   10.13
   4  -4  16   -2.38    4.32
   4   4 -16    3.09    6.12
  -4  -4  16    1.72    4.31
  -4   4  16   -2.11    4.95
  -4   4 -16   -1.37    6.41
  -4  -4  16    0.63    3.14
  -4  -4  17   41.78    5.84
  -4  -4  17   30.41    5.96
  -4   4  17   40.74    7.30
  -4   4 -17   29.99    7.39
   4  -4  17   33.06    5.97
  -4  -4  18   42.60    5.70
   4  -4  18   43.23    6.37
  -4   4  18   49.92    7.88
  -4  -4  18   46.49    6.89
  -4   4 -18   60.83    8.73
  -4  -4  19   27.69    4.41
   4  -4  19   36.53    5.22
  -4  -4  19   37.93    5.91
  -4   4 -19   31.41    6.30
  -4   4 -20  189.10   14.89
  -4  -4  20  230.03   14.72
  -4  -4  20  179.56   13.31
  -4   4  20  218.12   15.09
   4  -4  20  169.24   13.53
  -4  -4  21   10.81    2.88
  -4   4 -21    5.74    2.80
  -4   4  21   10.80    3.24
   4   5   0   37.30    7.80
  -4   5   0   90.34    6.52
   4   5  -1 1597.49   96.94
   4   5  -1 1575.45   97.89
   4   5   1 1678.87   97.84
  -4   5  -1 1531.10   90.92
   4   5  -2 2796.84  161.00
   4   5   2 2953.66  160.60
  -4   5  -2 2680.67  152.48
  -4   5   2 2531.79  152.42
   4   5  -3   26.06    7.63
  -4   5  -3   25.77    3.26
  -4   5   3   18.55    3.08
   4   5   3   24.77    6.94
   4   5   4  248.57   22.46
  -4   5  -4  224.95   14.93
  -4   5   4  219.62   15.11
   4   5  -4  252.04   24.80
  -4   5   4  283.44   32.15
   4   5   5   47.07    9.47
   4   5  -5   18.91    8.61
  -4   5  -5   38.87    4.13
  -4   5   5   34.30    4.27
  -4   5   5   35.19   15.21
   4   5   6 2006.31  118.62
   4  -5   6 2102.01  119.94
   4   5  -6 1898.36  121.64
  -4   5  -6 1886.38  106.93
  -4   5   6 1688.71  107.35
  -4   5   6 2229.09  136.88
   4  -5   7 1458.24  107.63
   4   5  -7 1670.01  107.54
   4  -5   7 1650.46  104.71
  -4   5  -7 1647.08   93.49
  -4   5   7 1528.88   94.26
  -4   5   7 1830.58  120.72
   4  -5   8  267.30   30.48
   4   5  -8  303.74   30.03
   4  -5   8  290.40   27.94
  -4   5   8  340.88   37.50
   4   5  -9   40.00   10.62
   4  -5   9   35.92    5.29
  -4   5   9   19.36    7.55
   4  -5   9   39.85   11.73
   4  -5   9   40.82    9.66
  -4  -5   9   45.29    5.05
  -4  -5  10 1250.43   70.10
   4  -5  10 1089.79   70.39
  -4   5  10 1271.78   76.21
  -4  -5  10 1094.66   72.13
   4   5 -10 1144.95   82.15
   4  -5  10 1244.16   86.27
  -4   5  11   44.65    8.92
   4  -5  11   45.11    6.46
  -4  -5  11   62.46    6.45
   4   5 -11   38.28   10.99
  -4  -5  11   51.63    7.54
  -4  -5  12   28.21    4.53
   4  -5  12   14.78    4.34
   4   5 -12   10.88    7.31
  -4  -5  12   19.53    5.39
  -4   5  12   25.39    7.42
   4  -5  12   29.84   10.95
  -4  -5  13  694.62   40.63
   4  -5  13  580.50   40.88
  -4  -5  13  611.65   41.77
  -4   5  13  650.38   44.21
   4   5 -13  686.93   54.71
   4  -5  13  645.64   54.15
  -4  -5  14  691.21   42.62
   4  -5  14  629.49   43.28
  -4  -5  14  680.00   44.14
  -4   5  14  738.52   46.82
   4   5 -14  692.38   56.60
   4  -5  14  607.27   54.61
  -4   5 -15  292.13   23.67
  -4   5  15  271.14   22.07
  -4  -5  15  245.40   18.43
   4  -5  15  233.80   28.09
   4  -5  15  246.94   19.39
   4   5 -15  287.42   31.18
  -4  -5  15  253.78   19.85
  -4  -5  16    2.41    3.11
   4  -5  16    2.23    3.78
  -4  -5  16    4.02    4.21
   4   5 -16   -6.00    7.96
  -4   5 -16    2.54    6.06
  -4   5  16   -2.11    4.48
  -4  -5  17   94.70    8.56
   4  -5  17   75.25    8.61
  -4  -5  17   87.87    9.45
  -4   5  17   78.17   10.12
  -4   5 -17   81.29   11.24
  -4   5 -18  401.99   28.59
  -4  -5  18  392.22   25.63
   4  -5  18  375.32   26.03
  -4   5  18  398.36   27.86
  -4  -5  18  397.29   26.76
  -4  -5  19   64.51    6.46
   4  -5  19   60.39    6.68
  -4  -5  19   76.72    7.66
  -4   5  19   81.16    8.44
  -4   5 -19   59.56    8.21
  -4  -5  20    0.67    1.86
  -4  -5  20    4.78    2.64
  -4   5  20    5.82    3.17
  -4   5 -20    7.02    3.55
   4  -5  20    0.36    1.98
  -4   5 -21  111.72    9.42
  -4   5  21  123.33    9.31
  -4  -5  21  119.55    8.84
   4   6   0 1676.98  106.58
  -4   6   0 1719.65   99.54
   4   6   1   30.63    7.87
   4   6  -1   25.97    6.90
  -4   6  -1   24.03    3.59
   4   6  -2  435.32   34.65
   4   6   2  467.08   34.10
  -4   6  -2  446.50   26.45
  -4   6   2  390.46   26.23
   4   6  -3   -2.02    5.64
   4   6   3    1.65    4.12
  -4   6  -3    3.00    2.05
  -4   6   3    2.14    1.95
   4   6   4  127.80   15.45
   4   6  -4   94.34   16.16
  -4   6  -4  111.17    8.54
  -4   6   4  108.54    8.82
  -4   6   4  110.90   22.87
  -4   6  -5   35.39    5.78
   4   6  -5   51.97   13.00
   4   6   5   36.51    9.44
  -4   6  -5   39.16    4.50
  -4   6   5   47.31    5.36
  -4   6   5   40.34   19.58
   4   6   6 1109.68   79.75
   4   6  -6 1195.03   83.91
  -4   6   6 1349.27  102.67
  -4   6   7   -9.94   13.89
   4   6   7   -2.25    6.60
   4   6  -7    2.57    6.82
   4  -6   7    4.00    5.59
  -4   6  -8  467.48   33.73
   4   6  -8  459.32   40.60
   4  -6   8  428.44   41.23
   4   6   8  465.58   34.20
   4  -6   8  486.60   38.62
  -4   6   9    5.72    3.09
   4   6   9    7.24    5.35
   4   6  -9    2.46    6.16
  -4  -6   9    8.07    3.86
  -4   6   9    4.20    6.07
   4  -6   9    5.73    7.61
  -4   6  -9    6.15    5.66
   4  -6   9    5.74    4.49
  -4   6  10    7.13    3.16
  -4  -6  10    3.00    2.30
   4   6 -10    2.50    5.43
  -4  -6  10   -1.58    3.82
  -4   6  10    2.64    5.48
   4  -6  10    2.92    6.32
  -4   6 -10   -1.31    5.33
   4  -6  10    5.02    3.24
  -4  -6  11   26.08    5.52
   4   6  11   25.50    7.84
   4  -6  11   26.04    5.18
   4   6 -11   39.18   10.91
  -4   6  11   20.18    6.35
   4  -6  11   14.68    8.71
  -4   6  11   22.31    4.77
  -4  -6  11   20.29    4.08
  -4  -6  12   29.35    4.77
   4  -6  12   21.12    4.79
   4   6 -12   38.53   10.69
  -4  -6  12   19.11    4.99
  -4   6  12   14.77    6.91
   4  -6  12   14.77    8.36
  -4  -6  13    4.10    3.08
   4  -6  13    3.65    3.54
   4   6 -13    5.78    6.27
  -4  -6  13    9.66    4.03
  -4   6  13    9.68    5.57
  -4   6 -13    5.47    5.68
   4  -6  13   -2.92    6.84
  -4  -6  14 1095.72   67.02
   4  -6  14 1094.16   67.97
  -4   6 -14 1113.56   72.05
  -4  -6  14 1072.76   68.23
  -4   6  14 1157.40   71.20
   4   6 -14 1225.89   83.45
   4  -6  14 1107.48   81.18
  -4  -6  15   13.16    3.87
   4  -6  15   17.47    4.82
   4   6 -15   14.98    7.98
  -4  -6  15    9.36    4.25
  -4   6  15   11.24    6.08
  -4   6 -15   16.51    6.86
   4  -6  15    2.72    5.43
  -4  -6  16   24.76    4.29
   4  -6  16   25.43    4.84
  -4  -6  16   13.19    4.98
  -4   6  16   16.49    6.28
  -4   6 -16   14.12    6.35
  -4  -6  17   12.77    3.47
   4  -6  17   14.84    4.15
  -4  -6  17   13.25    4.39
  -4   6  17   19.12    6.03
  -4   6 -17   28.26    6.86
  -4  -6  18    8.37    3.36
   4  -6  18   11.52    3.63
  -4   6  18    7.70    3.95
  -4   6 -18    7.14    4.70
  -4  -6  18   12.07    4.04
  -4  -6  19   -0.39    2.39
   4  -6  19   -4.22    2.99
  -4  -6  19   -0.47    2.53
  -4   6  19    1.84    3.12
  -4   6 -19    2.91    3.92
  -4   6 -20  110.44    9.85
  -4  -6  20  102.66    8.38
  -4   6  20  103.78    8.94
  -4   6 -21    4.76    2.47
   4   7   0   77.83   12.51
  -4   7   0   86.50    7.38
  -4   7  -1 1153.17   69.05
   4   7   1 1173.60   77.62
   4   7  -1 1193.51   78.38
  -4   7   1 1224.91   85.88
   4   7  -2 2267.21  134.08
   4   7   2 2103.69  131.33
  -4   7  -2 2117.24  122.16
  -4   7   2 2037.55  122.11
  -4   7   2 2249.18  144.29
   4   7   3   46.95   10.48
   4   7  -3   50.93   12.09
  -4   7   3   42.75    6.50
  -4   7  -3   55.85    5.46
  -4   7   3   47.53    5.36
  -4   7   4   -5.33   13.34
   4   7  -4    2.65    7.78
   4   7   4    3.99    5.29
  -4   7   5  209.01   36.83
   4   7   5  211.28   22.82
   4   7  -5  154.04   24.33
   4   7   6  835.55   62.33
   4   7  -6  860.93   65.99
  -4   7   6  843.54   82.66
  -4   7  -7  887.06   62.37
  -4   7   7 1011.26   61.24
   4   7   7  953.45   70.79
   4   7  -7 1135.66   75.20
   4  -7   7 1106.62   70.25
   4   7   7  930.01   64.11
  -4   7   7  967.41   59.19
  -4   7   7 1220.93   94.09
   4   7   8    6.62    6.42
  -4   7  -8    0.53    2.94
  -4   7   8   -0.91    4.35
   4   7  -8   -2.65    5.74
  -4   7  -8    1.17    4.75
   4  -7   8   -2.81    6.57
   4  -7   8    1.97    3.89
  -4   7   9   10.99    3.57
   4   7   9   13.57    6.81
  -4   7  -9    5.08    5.86
   4   7  -9    7.80    7.29
  -4   7   9    9.06    6.08
   4  -7   9    5.72    7.61
  -4   7  10  606.81   36.80
  -4   7 -10  588.98   41.14
  -4  -7  10  517.45   36.56
  -4   7  10  506.58   39.51
   4   7 -10  605.28   48.34
   4  -7  10  641.35   50.69
  -4  -7  11    4.91    2.55
  -4   7  11    3.64    5.15
   4   7 -11   -2.70    6.32
  -4  -7  11    2.17    3.07
  -4   7 -11    6.73    6.07
   4  -7  11   -2.93    5.18
   4  -7  11    3.98    3.22
  -4   7  11    0.69    3.50
   4   7  12    5.68    6.53
  -4  -7  12    3.40    2.97
   4  -7  12    5.50    2.86
   4   7 -12    8.43    7.03
  -4  -7  12    8.84    3.69
  -4   7  12   -1.19    5.28
  -4   7 -12    6.67    6.02
   4  -7  12   -2.92    6.33
  -4   7  12    1.43    3.57
  -4  -7  13  459.76   29.61
   4  -7  13  431.37   30.11
  -4   7 -13  470.88   34.48
  -4  -7  13  435.41   30.53
  -4   7  13  440.88   33.29
   4   7 -13  486.57   43.02
   4  -7  13  409.07   41.00
  -4   7  13  475.94   30.64
  -4  -7  14  637.56   38.34
   4  -7  14  626.23   39.05
  -4   7 -14  521.40   41.53
  -4   7  14  563.97   41.39
   4   7 -14  647.35   52.92
   4  -7  14  680.00   52.90
  -4  -7  14  581.59   39.00
  -4  -7  15  217.45   16.06
   4  -7  15  233.57   16.89
  -4   7 -15  212.43   19.49
  -4  -7  15  222.35   16.86
  -4   7  15  195.68   18.47
   4   7 -15  188.30   25.53
  -4  -7  16   -1.10    2.83
   4  -7  16    1.25    2.94
  -4  -7  16   -1.93    3.50
  -4   7 -16    2.17    5.16
  -4   7  16    0.96    4.41
  -4  -7  17   25.11    4.15
   4  -7  17   21.81    4.20
  -4  -7  17   18.21    4.18
  -4   7  17   10.75    4.98
  -4   7 -17   18.30    5.82
  -4   7 -18  233.03   18.75
  -4  -7  18  220.24   16.22
   4  -7  18  238.69   16.59
  -4  -7  18  265.27   16.98
  -4   7  18  226.51   17.79
  -4  -7  19   47.28    4.91
  -4  -7  19   34.19    4.39
  -4   7  19   38.50    5.39
  -4   7 -19   47.44    6.49
   4  -7  19   32.55    4.40
  -4   7 -20    1.05    2.86
  -4   7 -21  158.96   11.58
   4   8   0 1567.84  102.67
  -4   8   0 1549.80  108.43
   4   8   1  592.29   45.30
  -4   8  -1  538.09   47.98
  -4   8   1  577.73   52.63
   4   8  -2   35.21   10.31
   4   8   2   20.89    8.01
  -4   8  -2   36.31   10.64
  -4   8   2   33.94   14.63
   4   8  -3 1433.35   95.01
   4   8   3 1363.44   91.09
  -4   8  -3 1280.13   92.51
   4   8  -4  241.02   29.30
   4   8   4  297.07   28.05
  -4   8  -4  239.41   26.99
  -4   8   5  502.61   32.75
   4   8  -5  527.45   47.17
   4   8   5  514.11   42.83
  -4   8  -5  474.71   42.31
  -4   8   5  581.71   65.96
  -4   8   6  533.21   33.43
  -4   8  -6  472.65   35.08
  -4   8  -6  499.18   32.50
   4   8   6  553.05   44.57
   4   8  -6  562.27   47.76
  -4   8   6  525.14   34.57
   4   8   6  474.82   37.58
  -4   8   6  514.31   32.51
  -4   8  -6  449.95   41.47
  -4   8   6  605.93   67.19
  -4   8  -7  871.84   58.40
  -4   8  -7  878.59   54.85
  -4   8   7 1008.39   58.48
   4   8  -7 1046.17   71.87
   4  -8   7  999.82   65.67
   4   8   7  914.44   61.16
  -4   8   7  846.10   54.55
  -4   8  -7  820.92   64.60
   4   8   8   54.94   11.20
  -4   8  -8   53.31    6.65
  -4   8   8   67.27    9.82
   4   8  -8   78.98   15.12
  -4   8  -8   42.62    9.22
   4  -8   8   80.98   12.78
  -4   8  -9  429.54   34.20
  -4   8   9  457.54   31.03
  -4   8   9  499.29   33.26
   4   8  -9  393.46   40.07
   4  -8   9  490.57   43.20
   4   8   9  490.46   37.18
  -4   8  10  158.30   13.73
  -4   8 -10  176.65   17.33
  -4   8  10  138.03   14.89
   4   8 -10  156.85   21.75
   4   8  10  175.01   19.03
   4  -8  10  183.30   23.64
  -4   8  11  441.47   31.56
   4  -8  11  494.58   31.33
  -4   8 -11  508.46   36.09
  -4   8  11  426.09   33.24
  -4  -8  11  486.14   30.63
   4   8 -11  440.62   42.08
   4  -8  11  529.27   44.81
   4  -8  12    9.95    3.70
   4   8 -12   14.40    7.66
  -4   8 -12    3.87    5.62
   4  -8  12    2.89    6.29
  -4  -8  12   10.24    3.34
  -4   8  12   11.69    4.45
  -4   8  12   12.67    5.23
  -4  -8  13  492.02   29.77
  -4   8 -13  452.44   33.72
  -4   8  13  389.66   31.82
   4   8 -13  461.88   42.87
   4  -8  13  458.65   30.09
   4  -8  13  458.12   42.32
  -4   8  13  431.97   30.56
  -4  -8  14  254.72   16.43
   4  -8  14  231.41   16.55
  -4   8 -14  215.06   19.30
  -4  -8  14  205.82   16.16
  -4   8  14  173.50   17.62
   4   8 -14  218.30   27.16
   4  -8  14  182.50   24.07
  -4   8  14  194.77   16.64
  -4  -8  15  464.11   29.03
   4  -8  15  453.65   29.43
  -4   8 -15  440.81   32.32
  -4  -8  15  465.95   29.41
  -4   8  15  372.78   30.51
  -4  -8  16   -0.52    2.52
  -4  -8  16   -0.53    2.91
  -4   8  16   -3.25    4.55
  -4   8 -16   -0.99    4.49
   4  -8  16    1.71    2.57
  -4   8 -17   87.25   10.30
  -4  -8  17   84.83    7.91
  -4  -8  17   85.99    7.82
  -4   8  17   88.30    9.39
   4  -8  17   86.52    8.19
   4  -8  18   51.50    5.73
  -4   8  18   41.23    5.92
  -4   8 -18   61.69    7.90
  -4   8 -19  246.12   16.54
  -4   8  19  194.63   14.29
  -4   8 -20   70.36    7.02
   4   9   0   53.75   12.42
  -4   9   0   29.39   13.22
  -4   9   1   20.75   13.36
   4   9   1   34.55   10.40
  -4   9  -1   40.29   13.40
  -4   9  -2  787.77   50.85
   4   9  -2  842.50   63.30
   4   9   2  831.18   61.43
  -4   9  -2  806.72   64.99
  -4   9   2  895.83   75.93
  -4   9   3  771.61   49.28
  -4   9  -3  732.21   49.92
  -4   9   3  786.21   48.83
   4   9  -3  849.63   64.03
   4   9   3  781.16   60.28
  -4   9   3  828.77   48.91
  -4   9  -3  815.95   63.40
  -4   9   3  970.89   81.25
  -4   9   4  159.97   12.89
  -4   9  -4  134.83   13.77
   4   9   4  150.74   20.39
   4   9  -4  193.88   25.50
  -4   9   4  159.93   12.49
  -4   9   4  158.80   13.60
  -4   9  -4  159.87   12.72
  -4   9  -4  153.11   22.34
   4   9  -5  182.79   25.35
  -4   9   5  153.71   13.09
  -4   9   5  157.66   14.07
  -4   9  -5  158.74   12.95
   4   9   5  157.42   17.10
  -4   9   5  162.75   12.69
   4   9   5  149.18   21.15
  -4   9  -5  135.80   21.44
  -4   9   6  556.97   36.52
  -4   9   6  534.09   34.32
  -4   9  -6  491.01   33.52
   4   9   6  513.86   45.66
   4   9  -6  546.20   48.78
   4   9   6  507.62   39.12
  -4   9   6  512.56   33.24
  -4   9  -6  511.62   45.51
  -4   9  -7   74.41    8.85
  -4   9   7  105.39   12.68
   4   9  -7   96.75   18.21
   4  -9   7  102.09   15.12
  -4   9   7   93.61    8.83
   4   9   7   94.81   14.37
  -4   9  -7  120.45   18.37
  -4   9  -8  161.05   14.14
  -4   9   8  204.56   18.16
   4   9   8  154.90   19.98
   4   9  -8  190.89   24.72
  -4   9  -9  211.93   20.45
  -4   9   9  239.92   18.30
  -4   9   9  207.01   18.98
   4  -9   9  256.87   28.65
   4   9   9  235.39   24.10
   4   9  -9  214.38   26.60
  -4   9  10  396.94   28.39
  -4   9 -10  403.26   31.60
   4   9 -10  367.91   37.91
   4  -9  10  440.08   40.44
   4   9  10  443.81   35.23
  -4   9  11  440.09   31.60
   4  -9  11  495.48   30.76
  -4   9 -11  463.04   34.77
   4   9 -11  379.45   40.52
   4  -9  11  489.81   44.05
   4   9  11  471.12   38.10
   4  -9  12   37.58    5.37
   4   9 -12   17.59    8.44
  -4   9 -12   33.41    8.58
   4  -9  12   39.93   11.74
  -4   9  12   31.13    6.42
  -4  -9  12   43.66    5.42
   4  -9  13   26.41    4.96
  -4  -9  13   24.52    4.74
  -4   9  13   23.40    5.44
  -4   9 -13   18.73    6.86
   4   9 -13   32.38   10.51
   4  -9  13   33.02   10.70
  -4   9  13   28.28    6.19
  -4  -9  14  496.63   30.08
   4  -9  14  474.74   30.30
  -4   9 -14  463.68   33.38
  -4   9  14  396.52   30.67
   4   9 -14  466.41   43.06
  -4   9  14  457.50   31.34
  -4  -9  15    0.53    2.87
   4  -9  15   -3.96    3.09
  -4   9  15    2.18    3.79
  -4   9 -15    1.01    4.46
  -4  -9  16   11.14    3.41
   4  -9  16    8.71    3.02
  -4   9  16   10.67    3.63
  -4   9 -16    4.54    4.51
  -4   9 -17  224.62   16.76
  -4  -9  17  197.23   14.17
   4  -9  17  188.41   14.21
  -4  -9  18  149.28   11.42
   4  -9  18  161.53   11.58
  -4   9 -19   26.47    4.63
  -4   9 -20   36.05    4.60
  -4  10   0  161.21   27.31
   4  10   0  209.88   26.30
  -4  10   0  193.04   15.38
  -4  10   0  191.38   15.32
  -4  10  -1   15.38   10.31
  -4  10   1   22.71   14.00
  -4  10   1   34.58    5.35
  -4  10  -1   20.20    4.93
   4  10   1   14.74    8.77
  -4  10  -1   34.99    5.96
  -4  10  -2  466.33   32.93
  -4  10   2  520.53   32.33
  -4  10  -2  480.45   32.56
  -4  10   2  484.11   32.71
   4  10   2  493.40   44.46
  -4  10   2  478.46   31.92
  -4  10  -2  520.04   49.18
  -4  10   2  568.59   57.41
  -4  10  -3    7.06    9.37
  -4  10   3    5.82   15.45
  -4  10   3    6.46    3.19
  -4  10   3    4.78    3.00
  -4  10  -3    6.32    4.08
  -4  10   3   11.03    4.30
  -4  10  -3   -0.86    4.29
   4  10   3    2.88    5.70
   4  10  -3   10.03    8.37
  -4  10   4  634.28   39.75
   4  10   4  668.69   53.31
  -4  10  -4  632.82   41.70
   4  10  -4  674.63   56.41
  -4  10  -4  572.64   39.56
  -4  10   4  630.47   41.05
   4  10   4  604.45   42.59
  -4  10   4  601.75   38.97
  -4  10  -4  641.41   55.17
  -4  10  -5    6.62    8.78
  -4  10   5    0.72    3.10
  -4  10   5    0.59    2.75
  -4  10   5   -2.00    4.93
   4  10   5    8.30    6.92
  -4  10  -5    1.04    4.67
   4  10  -5   -3.52    8.82
  -4  10  -5    0.71    3.79
   4  10   5    8.96    7.93
  -4  10   6   35.72    6.38
  -4  10   6   58.05    9.30
   4  10   6   40.51   10.05
  -4  10  -6   48.45    8.66
   4  10  -6   51.13   13.72
  -4  10  -6   53.19    6.89
   4  10   6   55.62   13.90
  -4  10   6   56.61    6.38
  -4  10   7   56.09    7.57
   4  10   7   60.51   12.57
  -4  10  -7   42.26    6.84
   4  10  -7   45.50   12.85
  -4  10   7   54.26   10.04
  -4  10  -8   47.67    7.06
  -4  10   8   56.83    9.88
   4  10  -8   55.99   13.76
   4  10   8   37.68   11.30
  -4  10   9   22.09    5.61
   4  10   9   39.28   12.60
  -4  10   9   17.38    6.51
   4  10  -9   39.12   12.54
   4 -10   9   14.57    8.24
  -4  10  10 1094.10   69.78
   4  10 -10 1158.23   83.04
   4 -10  10 1097.22   82.17
   4  10  10 1194.45   78.34
   4  10  11   67.28   14.74
   4  10 -11   56.07   13.65
  -4  10 -11   61.86   10.24
   4 -10  11   60.70   13.86
  -4  10  11   42.91    7.57
  -4 -10  12   58.08    6.81
   4 -10  12   46.57    6.61
   4  10 -12   52.94   13.89
  -4  10 -12   52.91    9.38
   4 -10  12   78.04   14.72
  -4  10  12   58.77    8.31
  -4 -10  13   18.96    4.11
   4 -10  13   16.00    4.23
  -4  10 -13   14.30    6.52
   4  10 -13   11.60    7.31
   4 -10  13   21.09    8.77
  -4  10  13   13.88    4.88
  -4 -10  14   12.74    3.43
   4 -10  14    8.39    3.32
  -4  10 -14    5.09    4.87
  -4  10  14    8.15    4.75
  -4 -10  15    6.40    3.07
   4 -10  15    5.64    3.10
  -4  10  15    5.82    4.28
  -4  10 -15    6.47    4.85
  -4  10 -16  123.00   11.59
   4 -10  16  107.24    8.91
  -4 -10  16  104.25    8.85
  -4  10  16   87.18    9.40
  -4 -10  17    5.25    2.35
   4 -10  17    0.76    1.99
  -4  10 -17    4.95    4.06
  -4  10 -18  262.98   18.88
  -4  10 -19    0.45    2.73
  -4  10 -20   29.84    3.65
  -4  11   0  227.54   32.86
  -4  11   0  207.50   17.29
   4  11   0  194.52   28.73
  -4  11   0  228.19   17.24
  -4  11  -1   20.73   11.65
  -4  11   1   28.27   14.47
  -4  11  -1   18.32    5.15
  -4  11  -1   16.37    5.38
   4  11   1   28.01   11.64
  -4  11   1   20.81    4.91
   4  11  -1   11.69    9.81
  -4  11  -2  888.87   55.81
  -4  11   2  921.60   54.88
  -4  11  -2  826.74   55.22
  -4  11   2  798.92   55.25
   4  11   2  916.07   71.22
  -4  11   2  885.38   54.47
  -4  11  -2  982.14   76.04
  -4  11  -3  720.09   48.08
  -4  11  -3  804.24   49.60
  -4  11   3  765.84   47.79
  -4  11   3  741.97   48.86
   4  11   3  810.27   63.57
   4  11   3  723.99   48.92
  -4  11   3  746.52   47.16
  -4  11  -3  779.13   65.58
  -4  11  -4   62.76   16.17
  -4  11   4   61.93    8.04
   4  11   4   59.66   14.63
  -4  11   4   88.60   10.08
   4  11   4   71.05   10.53
  -4  11  -4   78.42   10.27
  -4  11  -4   61.90    8.30
  -4  11   4   79.19    8.09
  -4  11   5  299.93   22.04
  -4  11  -5  342.77   24.70
  -4  11  -5  255.89   21.45
   4  11   5  284.75   33.45
  -4  11   5  291.83   23.92
   4  11   5  308.76   25.90
  -4  11   5  306.62   21.10
  -4  11  -5  324.91   35.75
  -4  11   6 1040.80   63.46
  -4  11  -6 1018.26   65.68
  -4  11   6 1060.79   66.27
  -4  11  -6  961.95   62.71
   4  11   6 1083.28   69.46
  -4  11   6  970.60   61.62
  -4  11  -6 1124.23   79.52
  -4  11   7  176.01   15.41
  -4  11  -7  185.63   17.75
  -4  11   7  216.68   19.31
   4  11  -7  159.82   24.68
   4  11   7  194.03   21.96
  -4  11  -7  168.91   15.00
  -4  11   8   65.83    8.87
   4  11   8   48.54   13.28
  -4  11  -8   48.44    7.09
  -4  11   8   49.30    9.29
  -4  11  -8   62.93   10.16
   4  11  -8   41.16   11.93
  -4  11   9  236.00   19.13
   4 -11   9  296.68   30.78
  -4  11  -9  242.62   17.92
   4  11  -9  232.02   28.63
   4  11   9  222.63   26.33
  -4  11   9  198.01   18.69
  -4  11  10  621.68   43.76
   4  11 -10  665.64   55.69
   4 -11  10  673.79   55.47
   4  11  10  774.98   54.38
  -4  11  11  460.71   33.26
   4  11 -11  476.26   44.35
   4 -11  11  459.11   43.00
   4  11  11  566.68   43.20
  -4 -11  12   15.77    4.01
   4 -11  12   18.65    4.30
   4  11 -12   23.06    8.89
   4 -11  12   10.72    6.78
  -4  11  12   14.79    5.26
  -4 -11  13   14.46    3.67
   4 -11  13    9.40    3.56
  -4  11 -13   10.17    5.44
  -4  11  13   14.17    5.52
  -4  11 -14  347.59   25.82
   4 -11  14  329.41   23.07
  -4  11  14  348.40   25.16
  -4 -11  14  368.12   23.30
  -4 -11  15    0.45    2.69
   4 -11  15   -1.37    2.91
  -4  11  15    1.43    3.84
  -4  11 -15    0.83    4.15
  -4 -11  16    0.78    2.45
   4 -11  16    3.54    2.42
  -4  11  16    8.18    3.80
  -4  11 -16    8.72    4.27
  -4  11 -17  273.42   19.06
  -4 -11  17  256.12   17.06
  -4  11 -18  248.91   16.19
   4  11 -18  204.67   14.81
  -4  11 -19    2.12    2.12
  -4  12   0   92.06   10.89
   4  12   0  102.52   20.74
  -4  12   0  100.38   10.49
  -4  12   1  108.06   10.61
  -4  12  -1   95.90   10.56
   4  12  -1   75.54   19.23
  -4  12   1  104.49   10.19
  -4  12  -1   95.53   10.68
  -4  12   2   63.58    8.22
  -4  12   2   66.78    7.88
  -4  12  -2   79.55    9.45
  -4  12  -2   54.15    8.27
  -4  12   2   54.29    8.60
   4  12   2   75.19   18.21
  -4  12   3   57.73    7.53
  -4  12   3   58.25    7.16
  -4  12  -3   63.79    8.27
   4  12   3   46.14   14.71
   4  12   3   34.06    7.16
  -4  12  -3   44.81    8.10
  -4  12   3   49.64    7.89
  -4  12  -4  902.01   57.19
  -4  12   4  915.18   55.45
  -4  12  -4  828.19   55.25
  -4  12   4  823.80   56.45
   4  12   4  775.78   70.23
   4  12   4  960.54   57.81
  -4  12   4  862.75   54.09
  -4  12   5   51.64    7.28
  -4  12   5   36.89    5.82
  -4  12  -5   39.46    6.80
  -4  12   5   37.93    8.33
  -4  12  -5   44.20    8.41
   4  12   5   39.89    9.18
   4  12   5   33.69   12.60
  -4  12  -6  135.73   13.06
  -4  12   6  147.99   13.59
  -4  12  -6  144.84   14.77
  -4  12   6  172.07   16.42
   4  12   6  159.31   18.03
  -4  12   6  137.11   12.17
   4  12   7   40.39   11.25
  -4  12   7   30.84    6.59
  -4  12  -7   39.06    6.64
  -4  12   7   58.00    9.22
  -4  12  -7   48.60    8.84
  -4  12   8   29.28    7.08
   4  12   8   39.46   12.34
  -4  12  -8   33.18    6.19
  -4  12   8   35.83    8.23
  -4  12  -8   43.67    8.81
  -4  12   9   56.28    8.80
  -4  12  -9   62.03    7.16
  -4  12   9   57.66    8.28
  -4  12  -9   54.62    9.46
   4  12   9   40.77   13.84
  -4  12  10  206.30   17.69
  -4  12 -10  188.29   18.18
   4  12  10  188.65   24.53
   4 -12  10  248.08   27.48
   4  12  11   28.11   14.03
  -4  12  11   34.98    7.08
  -4 -12  12   62.93    7.01
   4 -12  12   63.32    7.04
   4  12  12   53.15   15.09
  -4  12  12   68.28    9.36
  -4 -12  13   52.79    5.80
  -4  12  13   47.39    7.95
   4 -12  13   42.95    5.44
   4 -12  14  109.06    8.84
  -4  12  14   91.61   10.46
  -4 -12  14   93.19    8.48
  -4 -12  15   23.65    3.89
   4 -12  15   27.63    3.99
  -4  12  15   22.89    5.11
  -4  12 -16  104.12    9.70
  -4 -12  16   90.82    7.65
   4  12 -16   91.63    8.00
  -4  12  16   99.51    9.18
   4 -12  16   95.00    7.65
  -4  12 -17   55.71    6.38
  -4  12 -18   46.12    5.17
  -4  12 -19   13.71    2.22
  -4  13   0   36.71    7.12
  -4  13   0   23.99    5.56
   4  13   0   24.11   13.58
  -4  13   1   42.77    7.26
   4  13  -1   34.17   13.97
  -4  13  -1   51.60    7.71
  -4  13  -1   53.62    8.39
  -4  13   1   67.56    7.99
   4  13   1   51.62   17.85
  -4  13   2  167.42   14.85
   4  13   2  176.81   29.11
  -4  13   2  175.28   15.80
  -4  13   2  188.24   14.67
   4  13  -2  174.15   30.56
  -4  13  -2  157.25   15.20
  -4  13  -2  151.94   14.99
  -4  13  -3  785.93   52.02
  -4  13   3  754.61   50.72
  -4  13  -3  781.18   51.20
  -4  13   3  794.39   51.88
   4  13   3  829.86   71.10
  -4  13   3  833.28   50.07
   4  13   4   -4.24    8.39
  -4  13   4    3.51    4.12
  -4  13   4    4.08    3.18
  -4  13  -4    5.41    5.50
  -4  13  -4    1.77    4.06
  -4  13   4    2.14    5.18
   4  13   4    9.37    5.29
  -4  13   5   22.52    5.47
  -4  13   5   18.43    4.55
   4  13   5   18.27    7.70
  -4  13  -5   16.89    5.09
  -4  13   5   22.53    7.00
  -4  13  -5   24.73    7.12
   4  13   5   33.18   13.28
  -4  13   6  142.59   13.20
  -4  13  -6  123.85   13.96
  -4  13  -6  108.13   11.80
  -4  13   6  148.08   15.02
   4  13   6  143.79   16.20
   4  13  -6  151.47   23.65
  -4  13  -7  135.60   14.21
  -4  13   7  105.54   13.37
  -4  13  -7  134.23   12.11
  -4  13   7  114.57   14.06
   4  13   7  135.20   17.17
  -4  13   8    8.88    5.79
   4  13   8    9.39    9.14
  -4  13  -8   15.45    4.43
  -4  13   8   19.19    6.24
  -4  13  -8   19.13    6.80
   4  13  -8   18.63    9.55
  -4  13   9  163.14   16.01
  -4  13  -9  176.60   16.18
  -4  13   9  124.03   13.72
  -4  13  -9  178.30   13.63
   4  13  -9  150.55   22.51
   4 -13   9  189.57   23.97
   4  13   9  195.15   23.00
  -4  13 -10   62.92    9.48
  -4  13  10   48.39    8.30
  -4  13 -11  115.05   12.91
  -4  13  11  119.77   12.99
   4  13  12   15.04   10.06
  -4 -13  12    5.46    2.87
  -4  13 -12    3.56    4.93
  -4  13  12    8.32    5.18
   4 -13  12    7.47    2.98
  -4  13  13   16.88    5.28
  -4 -13  13   14.30    3.35
   4 -13  13   12.11    3.29
  -4  13 -13   13.67    5.43
  -4 -13  14   66.85    6.18
   4 -13  14   54.69    5.86
  -4  13  14   63.62    8.09
  -4 -13  15    4.27    2.37
  -4  13  15    7.33    3.55
   4 -13  15    3.58    2.40
  -4  13  16    4.10    2.83
  -4  14   0  239.31   18.65
   4  14   0  218.74   34.54
  -4  14   0  193.75   18.23
  -4  14   0  222.29   17.74
  -4  14   1  230.49   19.01
  -4  14  -1  218.47   18.84
   4  14  -1  194.83   33.34
   4  14   1  191.13   32.92
  -4  14   1  230.91   18.00
  -4  14  -1  239.43   18.77
  -4  14   2  320.79   23.12
   4  14  -2  241.23   37.10
   4  14   2  276.92   39.57
  -4  14  -2  281.33   22.74
  -4  14   2  283.39   21.43
  -4  14   2  292.85   23.05
  -4  14  -2  308.28   22.91
  -4  14   3  307.90   22.30
   4  14   3  271.56   38.05
  -4  14  -3  262.99   21.49
  -4  14   3  323.22   22.98
   4  14  -3  254.15   36.58
  -4  14   3  258.08   20.27
  -4  14  -3  275.89   22.23
  -4  14   4  564.67   37.48
   4  14  -4  496.40   53.16
  -4  14  -4  535.17   36.64
  -4  14   4  504.28   37.26
   4  14   4  529.07   55.89
   4  14   4  561.57   37.64
  -4  14   4  550.63   35.68
  -4  14  -4  587.60   38.46
  -4  14  -5  117.55   12.64
  -4  14   5   97.65   11.26
  -4  14  -5  117.18   11.31
  -4  14   5  110.79   12.32
   4  14   5  100.47   12.22
   4  14   5  112.81   23.36
  -4  14   5   97.79    9.77
  -4  14   6   30.21    6.80
  -4  14   6   16.27    5.76
  -4  14   6   13.47    6.63
   4  14   6   25.87    7.74
  -4  14  -6   33.80    6.73
  -4  14  -6   22.03    5.49
  -4  14  -7  268.22   22.14
  -4  14   7  255.59   22.95
  -4  14  -7  270.81   20.30
  -4  14   7  293.15   22.74
   4  14   7  309.61   25.29
   4  14   8   -7.89    8.37
  -4  14  -8    2.99    4.67
  -4  14  -8    1.32    3.50
  -4  14   8    9.68    4.77
  -4  14   8    1.14    5.45
  -4  14   9  118.92   13.50
  -4  14  -9  124.51   13.03
   4  14   9  143.18   18.30
  -4  14  10  290.73   24.00
  -4  14 -10  297.69   23.33
  -4  14 -11  165.31   15.07
  -4 -14  11  179.08   13.26
   4 -14  11  188.92   13.49
   4  14  11  198.52   22.67
  -4  14  11  158.71   15.79
  -4 -14  12   51.15    5.67
   4 -14  12   46.50    5.53
  -4  14 -12   45.20    6.93
  -4  14  12   42.51    7.37
  -4  14 -13  108.55   10.55
  -4 -14  13  112.28    8.73
   4 -14  13  111.88    8.71
  -4  14  13   94.88   10.73
  -4 -14  14   32.96    4.15
   4 -14  14   33.25    4.03
  -4  14 -14   43.30    5.84
  -4  14  14   33.27    5.92
  -4  14 -15  160.89   12.06
  -4  14  15  145.39   12.11
  -4  14 -16   65.59    6.20
  -4  14  16   58.58    5.71
  -4  14 -17   33.02    3.58
  -4  15   0   11.91    5.53
  -4  15   0   12.88    4.78
  -4  15   0   13.64    5.44
   4  15   0   15.95   13.32
  -4  15   1   46.94    8.09
  -4  15  -1   58.77    8.80
   4  15  -1   61.30   18.90
  -4  15   1   52.62    7.51
  -4  15  -1   55.07    7.78
  -4  15  -1   65.66    8.67
   4  15   1   70.05   20.47
  -4  15   2  646.69   43.30
  -4  15  -2  621.55   42.36
  -4  15   2  636.04   42.80
   4  15   2  771.10   69.71
  -4  15   2  636.40   41.46
   4  15  -2  612.49   62.19
  -4  15  -2  680.55   42.91
  -4  15   3 1042.92   65.53
  -4  15   3 1033.21   65.24
   4  15   3  998.51   89.03
  -4  15  -3 1029.39   64.72
  -4  15   3  979.97   63.34
  -4  15  -3 1131.27   65.67
   4  15  -3 1088.43   86.91
   4  15  -4   24.14   10.71
  -4  15   4   15.50    5.69
  -4  15   4   14.85    4.22
  -4  15  -4   13.90    5.26
  -4  15  -4   14.42    4.99
  -4  15   4   22.56    6.06
   4  15   4    9.97   12.50
  -4  15   5  359.05   26.37
   4  15  -5  319.23   37.81
  -4  15   5  378.97   26.54
   4  15   5  367.79   43.75
   4  15   5  347.67   25.99
  -4  15  -5  311.26   24.40
  -4  15  -5  387.80   26.53
  -4  15  -6  625.71   38.46
  -4  15   6  532.18   37.77
  -4  15   6  574.11   39.76
  -4  15  -6  516.84   36.18
  -4  15   6  574.05   38.31
   4  15   6  551.00   38.55
  -4  15   7   11.82    6.41
   4  15   7    9.11    6.72
  -4  15  -7   20.33    5.69
  -4  15  -7   11.21    3.86
  -4  15   7   15.23    5.44
   4  15   8   79.02   11.66
  -4  15  -8   74.27    9.12
  -4  15   8   71.46   10.70
  -4  15   9  257.40   21.50
  -4  15  -9  235.74   19.33
   4  15   9  294.51   24.09
  -4  15 -10  468.74   33.58
   4  15  10  584.11   39.70
  -4  15  10  532.26   36.02
  -4  15 -11  724.55   45.69
  -4 -15  11  739.84   44.02
   4 -15  11  716.65   43.93
  -4  15  11  699.13   47.10
   4 -15  12   23.39    3.68
  -4  15 -12   35.12    5.42
  -4  15  12   20.48    5.94
  -4 -15  12   38.21    4.41
  -4 -15  13   -0.91    2.19
  -4  15 -13    2.12    2.96
  -4  15  13   -0.70    3.68
  -4  15 -14  257.22   17.70
  -4  15  14  258.39   18.50
  -4  15 -15   38.71    4.38
  -4  15  15   29.27    4.43
  -4  15 -16    5.50    1.59
  -4  16   0    3.01    4.44
  -4  16   0    5.67    3.50
  -4  16   0    1.67    4.18
  -4  16   1   20.96    6.72
  -4  16  -1   14.07    5.33
  -4  16   1   25.51    4.97
  -4  16  -1    8.85    4.16
  -4  16  -1   12.39    5.24
  -4  16   2  869.39   59.46
  -4  16  -2 1004.00   60.39
  -4  16  -2  918.08   58.57
  -4  16   2  936.23   58.77
  -4  16   2  923.27   57.36
  -4  16  -2  966.24   58.42
  -4  16   3   -0.98    4.76
  -4  16   3    1.77    2.81
  -4  16  -3    3.84    3.60
  -4  16  -3    0.78    3.76
  -4  16   3    1.68    4.08
  -4  16   4  912.91   61.89
  -4  16   4  982.29   63.25
  -4  16  -4  984.00   60.71
  -4  16   4  961.77   61.38
  -4  16  -4 1046.82   61.27
  -4  16   5   35.57    6.91
   4  16   5   30.33    6.28
  -4  16  -5   31.01    5.82
  -4  16  -5   24.94    5.23
  -4  16   5   33.72    6.31
  -4  16  -6  266.39   19.15
  -4  16   6  258.07   20.42
   4  16   6  266.70   20.55
  -4  16  -6  259.47   19.58
   4  16   7   19.44    5.79
  -4  16  -7   12.65    4.54
  -4  16   7    6.67    6.42
   4  16   8   30.23    7.42
  -4  16  -8   26.50    5.36
  -4  16   8   33.18    8.09
  -4  16  -9   37.07    5.74
  -4  16   9   35.29    7.59
   4 -16  10 1223.81   69.98
  -4  16  10 1202.60   73.69
  -4  16 -10 1116.59   70.97
  -4 -16  11   -0.33    2.06
   4 -16  11    1.32    2.04
  -4  16 -11    2.05    3.08
  -4  16  11    2.51    4.91
  -4  16  12  223.05   16.94
  -4  16 -12  205.30   15.02
  -4  16 -13   23.12    3.81
  -4  16  13   29.18    5.09
  -4  16 -14   19.02    2.88
  -4  16  14   15.80    3.67
  -4  17   0   41.23    7.73
  -4  17   0   30.38    4.85
  -4  17   0   36.59    6.25
  -4  17   1   67.44    9.46
  -4  17  -1   65.25    9.20
   4  17  -1   59.71    7.39
  -4  17  -1   59.83    7.86
  -4  17  -1   77.88    7.63
  -4  17   2  685.92   45.58
  -4  17  -2  674.61   45.17
  -4  17   2  776.25   45.47
  -4  17   2  621.51   43.57
  -4  17  -2  688.70   43.89
  -4  17  -2  692.25   42.94
  -4  17   3  960.88   61.93
  -4  17  -3  989.40   61.48
  -4  17   3 1065.81   62.14
  -4  17  -3  984.96   60.13
  -4  17   3  916.58   60.11
  -4  17  -3  957.98   59.22
  -4  17   4   10.47    5.73
  -4  17   4   15.95    5.53
  -4  17  -4   10.32    3.55
  -4  17  -4    5.91    4.19
  -4  17  -4    7.20    3.61
  -4  17   4   11.17    4.64
  -4  17  -5  281.28   19.72
  -4  17  -6  369.40   24.63
  -4  17  -7    1.02    2.71
  -4  17  -8    2.38    2.63
  -4  17   8    0.95    5.12
  -4  17   9  391.43   26.64
  -4  17  -9  342.37   23.19
  -4  17  10  359.39   25.48
  -4  17 -10  348.71   22.64
  -4  17  11  454.18   29.98
  -4  17 -11  435.30   27.37
  -4  17 -12    8.41    1.83
  -4  17 -12   10.10    2.14
  -4  17  12    8.87    3.95
  -4  17  13    5.89    2.88
  -4  18   0   16.13    4.41
  -4  18   0   23.05    6.04
  -4  18   1  246.62   18.94
  -4  18  -1  227.53   18.29
  -4  18   1  238.29   17.53
  -4  18  -1  217.04   16.74
  -4  18   2  239.14   19.07
  -4  18  -2  235.53   18.45
  -4  18   2  237.34   17.95
  -4  18  -2  231.73   16.95
  -4  18   3  322.85   22.56
  -4  18  -3  298.18   21.52
  -4  18   3  323.52   21.87
   4  18  -3  266.53   19.41
  -4  18  -3  281.61   19.74
  -4  18   4  649.78   37.46
  -4  18  -4  606.22   36.58
  -4  18  -4  572.85   34.57
  -4  18   5  115.31   11.58
  -4  18  -5  129.61   10.74
  -4  18  -5  114.38    8.93
  -4  18  -5   97.30    8.48
  -4  18  -6   23.71    4.35
  -4  18  -6   23.17    3.53
  -4  18  -7  175.16   12.30
  -4  18  -7  142.83   10.88
  -4  18  -8   50.20    5.43
  -4  18  -8   39.42    4.35
  -4  18  -9  174.24   12.52
  -4  18  -9  172.07   11.87
  -4  18 -10  201.81   13.18
  -4  18 -10  180.90   12.59
  -4  18  11   84.19    8.28
  -4  18  12   58.06    5.95
  -4  19   0   67.74    8.10
  -4  19   0   62.38    6.61
  -4  19   1    0.72    3.76
  -4  19  -1   -0.67    3.12
  -4  19   1    1.01    2.75
  -4  19  -1   -0.44    2.56
  -4  19   2   36.28    6.32
  -4  19  -2   37.56    5.89
  -4  19   2   38.90    5.59
  -4  19  -2   42.37    4.89
  -4  19   3  557.52   32.84
  -4  19  -3  476.38   30.90
  -4  19  -3  507.06   32.65
  -4  19  -4  116.85   10.43
  -4  19   4  134.03   11.02
  -4  19  -5   51.12    5.86
  -4  19   5   51.95    6.65
  -4  19  -6    7.04    2.70
  -4  19   6    7.19    3.80
  -4  19  -7   29.29    3.82
  -4  19  -8   64.03    5.56
  -4  19  10    2.87    2.33
  -4  20   0   13.14    3.55
  -4  20   0    6.68    2.45
  -4  20  -1   17.77    3.76
  -4  20  -1   17.66    2.78
  -4  20   1   22.89    3.45
  -4  20  -2   51.85    5.71
  -4  20   2   46.10    5.19
  -4  20  -3    8.57    2.81
  -4  20   3    3.38    2.55
  -4  20  -4  271.92   17.77
  -4  20   4  266.14   17.95
  -4  20  -5   13.61    2.63
  -4  20   5   10.83    2.99
  -4  20   6   16.09    3.10
  -4  20  -6    9.71    2.15
  -4  20   7   20.33    3.34
   5   0   0   -0.82    2.99
   5   0   0    3.40    6.01
   5   0   1  157.74   14.49
   5   0  -1  161.49   13.33
   5   0  -2    1.83    2.23
   5   0   2    2.10    3.47
   5   0  -2    1.15    1.77
   5   0  -3  246.47   19.25
   5   0   3  268.19   22.11
   5   0  -3  269.63   17.95
   5   0   3  283.68   27.82
   5   0  -4   -2.81    3.10
   5   0   4   -1.32    3.88
   5   0   4    4.88    7.15
   5   0  -5   80.61   11.57
   5   0   5   88.16   12.09
   5   0   5   79.05   15.65
   5   0  -6   -1.92    5.37
   5   0   6   -2.82    8.26
   5   0  -7  826.08   65.08
   5   0   7  987.44   70.79
   5   0  -8   -2.67    5.79
   5   0   8   -2.25    6.29
  -5   0   8   10.26    5.86
  -5   0   9   72.80   11.24
   5   0   9   64.68   13.73
   5   0  10    1.73    1.81
  -5   0  10    1.34    5.70
   5   0  10   -2.95    6.90
   5   0  11  273.14   17.95
  -5   0  11  250.14   22.66
   5   0  12    1.39    2.36
  -5   0  12    2.38    5.06
  -5   0  12    3.02    2.89
  -5   0  13  530.32   34.57
   5   0  13  543.43   34.44
  -5   0  13  568.01   38.70
  -5   0  14    1.84    2.82
   5   0  14    1.22    2.65
  -5   0  14   -1.09    5.56
  -5   0  15   53.65    8.85
  -5   0  15   47.29    6.71
   5   0  15   68.08    7.76
  -5   0  16   -1.89    3.01
   5   0  16   -2.22    3.70
  -5   0  16    4.99    5.66
  -5   0  17  113.19   10.63
   5   0  17  127.08   11.88
  -5   0  17  129.71   13.08
  -5   0  18    1.64    4.35
   5   0  18   -1.37    3.88
  -5   0  19   41.05    6.25
  -5   0  20    3.36    3.33
  -5   0  21  179.49   13.00
  -5   0  22   -0.55    1.58
   5  -1   0 2716.87  163.46
   5   1   0 2767.96  162.92
   5   1   0 2883.20  168.51
   5  -1  -1  615.14   40.88
   5  -1   1  639.36   42.44
   5   1   1  645.37   42.10
   5   1  -1  643.75   40.56
   5   1  -1  608.71   44.81
   5   1   1  612.44   46.54
   5   1  -2  122.59   11.62
   5  -1  -2  125.91   11.15
   5  -1   2   98.72   12.14
   5   1   2  138.90   13.19
   5   1  -2  132.98   14.49
   5  -1   2  134.22   18.19
   5   1  -3   87.86    9.71
   5  -1  -3   73.23    7.49
   5  -1  -3   84.55    7.88
   5  -1   3   74.27   10.61
   5   1   3   77.08   10.28
   5   1  -3   91.68   11.34
   5  -1   3   64.42   14.10
   5   1   3  103.01   15.63
   5  -1  -4   80.52    8.27
   5   1  -4   68.81    9.53
   5  -1  -4   58.28    5.98
   5  -1   4   79.64   10.82
   5   1   4   84.89   10.87
   5   1  -4   76.74   10.32
   5  -1   4   80.62   15.14
   5   1   4   91.12   15.95
   5  -1  -5  398.48   29.90
   5  -1   5  402.61   32.93
   5   1   5  407.46   32.19
   5   1  -5  438.40   31.10
   5  -1   5  407.92   38.57
   5   1   5  408.62   39.07
   5   1  -5  411.33   33.28
   5  -1  -6  171.21   19.02
   5   1  -6  183.49   21.36
   5   1  -6  165.64   15.95
   5  -1   6  191.05   24.02
   5   1   6  187.02   24.82
   5  -1  -7  162.48   21.74
   5   1  -7  166.51   23.07
   5  -1   7  190.35   21.89
   5   1  -7  212.94   17.50
   5  -1   7  211.44   25.44
   5   1  -8 1118.04   78.77
   5  -1   8 1146.42   77.90
   5   1   8 1047.82   75.32
   5  -1   8 1184.41   81.51
  -5  -1   8 1026.57   70.58
  -5   1   8 1092.56   75.42
  -5  -1   9  448.45   36.70
   5   1  -9  608.81   46.47
   5  -1   9  581.37   46.53
   5   1   9  609.41   45.33
  -5   1   9  441.85   40.11
   5  -1  10  308.83   20.01
   5   1  10  309.36   19.96
  -5  -1  10  281.83   25.25
   5   1 -10  355.73   33.10
   5  -1  10  342.02   34.53
   5  -1  11  101.69    8.35
   5   1  11   96.20    8.09
  -5  -1  11   93.64   12.63
   5  -1  11  101.99   18.88
  -5  -1  12  138.44   10.96
   5  -1  12  125.89   10.49
  -5   1  12  136.24   10.73
   5   1  12  131.44   10.39
  -5  -1  12  122.71   13.82
   5  -1  12  119.97   22.13
  -5  -1  13  158.20   12.35
   5  -1  13  159.29   12.37
  -5   1  13  141.28   12.02
   5   1  13  159.94   12.16
  -5  -1  13  126.69   14.48
  -5  -1  14  310.13   22.58
   5  -1  14  322.58   22.93
  -5   1  14  347.75   23.09
   5   1  14  335.06   22.76
   5   1 -14  340.06   34.48
  -5  -1  14  348.14   25.84
  -5  -1  15   46.00    6.69
   5  -1  15   48.53    7.21
  -5   1  15   51.93    6.83
   5   1  15   63.79    7.46
   5   1 -15   81.04   14.95
  -5  -1  15   68.57    9.40
  -5  -1  16    5.46    3.09
   5  -1  16    1.52    3.57
  -5   1  16   -0.64    3.17
   5   1  16    4.25    3.49
  -5  -1  16    5.82    5.22
  -5  -1  17  115.08   10.13
  -5   1  17  104.52   10.01
   5   1  17  106.20   10.79
   5  -1  17   81.66   10.40
  -5  -1  18   80.30    8.90
   5  -1  18   50.85    7.00
  -5  -1  19   58.54    7.53
  -5  -1  20  304.54   20.98
  -5  -1  21   62.07    6.14
  -5  -1  22    1.32    1.42
   5  -2   0 2865.11  169.43
   5   2   0 2853.38  172.85
   5  -2  -1 1264.74   78.44
   5  -2   1 1255.10   79.89
   5   2  -1 1313.90   82.02
   5   2   1 1272.69   83.40
   5   2  -2  226.07   18.70
   5  -2  -2  228.51   17.70
   5  -2   2  194.67   19.37
   5   2   2  234.69   19.54
   5   2  -2  247.79   20.80
   5   2  -3  139.19   14.27
   5  -2  -3  139.04   12.14
   5  -2   3  125.65   15.09
   5   2   3  170.20   15.22
   5   2  -3  128.67   14.08
   5  -2   3  147.24   20.32
   5   2  -4 1151.20   75.81
   5  -2  -4 1176.96   70.12
   5  -2   4 1093.36   76.46
   5   2   4 1218.00   75.42
   5  -2   4 1211.70   83.58
   5   2  -4 1144.42   73.89
   5   2   4 1197.70   82.33
   5   2  -5   74.70   12.61
   5   2   5   86.02   11.89
   5  -2   5   66.31   14.52
   5   2  -5   73.26    9.49
   5   2  -6    2.37    5.56
   5  -2  -6    2.63    4.94
   5   2  -6    4.96    3.62
   5  -2   6    2.67    6.68
   5  -2  -7  808.87   67.35
   5   2  -7  892.28   71.11
   5  -2   7 1073.23   72.02
   5   2  -7 1038.44   62.00
   5  -2   7 1029.83   73.32
  -5   2   7  983.69   58.40
  -5   2   7 1022.43   71.50
  -5   2   8  682.73   51.47
   5   2  -8  879.10   61.17
   5  -2   8  772.58   59.34
   5  -2   8  825.44   60.96
  -5   2   8  742.19   45.61
  -5   2   8  865.35   60.56
  -5   2   9   17.00    7.76
   5   2   9    7.20    2.04
   5   2  -9   12.87    7.56
   5  -2   9    8.82    8.23
  -5  -2   9    5.14    5.71
  -5   2   9   10.19    6.32
   5   2  10   13.70    2.89
   5   2 -10   15.37    6.83
  -5   2 -10   13.05    4.71
   5  -2  10    8.47    2.57
  -5  -2  10   12.46    5.87
  -5   2  10   18.29    7.29
   5  -2  10    9.65    9.46
   5  -2  11   35.78    4.64
   5   2  11   40.30    4.77
  -5   2 -11   28.92    7.00
   5   2 -11   52.18   11.98
  -5  -2  11   68.15    9.78
  -5   2  11   35.60    9.09
   5  -2  11   51.94   13.88
  -5  -2  12  475.98   29.60
   5  -2  12  449.01   29.40
  -5   2 -12  398.56   33.13
  -5   2  12  454.33   29.24
   5   2  12  474.92   29.15
  -5   2  12  455.93   34.12
  -5  -2  12  427.42   32.79
   5   2 -12  485.86   42.25
   5  -2  12  462.03   46.02
  -5  -2  13  296.70   20.94
   5  -2  13  306.07   21.22
  -5   2 -13  283.02   25.49
  -5   2  13  307.27   20.97
   5   2  13  303.99   20.67
  -5  -2  13  294.36   23.88
  -5   2  13  316.71   25.13
   5   2 -13  335.55   33.49
   5  -2  13  303.34   35.79
  -5  -2  14    6.57    3.49
   5  -2  14    5.41    3.67
  -5   2  14    3.71    3.02
   5   2  14    8.64    3.33
   5   2 -14   17.18    8.41
  -5  -2  14   12.28    5.74
  -5   2  14   15.92    5.70
  -5   2 -14   12.71    6.74
  -5   2 -15  127.35   15.46
  -5  -2  15  151.24   12.07
   5  -2  15  130.00   12.55
  -5   2  15  137.03   12.06
   5   2  15  139.74   12.10
  -5  -2  15  167.54   14.78
   5   2 -15  183.02   23.49
  -5   2 -16  251.60   23.34
  -5  -2  16  289.62   20.30
   5  -2  16  285.07   21.41
  -5   2  16  254.71   20.25
   5   2  16  313.81   21.22
  -5  -2  17   44.26    5.59
   5  -2  17   41.59    6.71
  -5   2 -17   24.43    6.73
   5  -2  18    0.65    3.20
  -5  -2  19   22.98    4.63
  -5  -2  20  188.28   14.57
  -5   2  20  213.35   15.21
  -5  -2  21  115.80    9.09
  -5   2  21  111.74    9.16
  -5  -2  22   -0.71    1.38
  -5   2  22    3.07    1.52
   5   3   0  358.31   26.72
   5   3   0  384.25   30.36
   5   3   1  111.98   12.53
   5   3  -1  130.34   12.05
   5   3  -1  114.19   12.38
   5   3  -1  123.83   14.59
   5   3   1  128.53   15.98
   5   3   2  270.97   22.09
   5   3  -2  266.37   19.37
   5   3  -2  251.48   21.33
   5  -3   2  274.04   23.48
   5   3  -2  233.35   21.57
   5   3   2  230.23   24.53
   5   3  -3  131.38   14.73
   5  -3   3  121.09   15.85
   5   3  -3  126.10   11.31
   5   3  -3  142.54   14.33
   5   3  -4 1626.12   99.32
   5  -3   4 1536.32   99.62
   5  -3   4 1373.28  103.05
   5   3  -4 1484.94   90.98
   5   3  -4 1652.72   95.44
   5   3  -5    8.80    5.52
   5  -3   5   -2.68    6.28
   5   3  -5    8.49    4.01
  -5   3   5   10.02    2.62
   5   3  -6 1914.95  137.92
   5  -3   6 2039.08  139.25
   5   3  -6 2173.60  129.12
  -5   3  -6 2266.95  124.95
  -5   3   6 2090.71  125.12
   5   3  -7   24.43   10.15
   5  -3   7   23.80   10.95
   5  -3   7   33.97   10.58
  -5   3  -7   44.22    4.44
  -5   3   7   42.03    4.73
  -5   3   7   29.73   11.07
  -5   3   8   -3.09    7.24
   5   3  -8    7.99    7.45
   5  -3   8    2.90    7.69
  -5  -3   8    8.47    5.96
  -5   3   8   -1.46    5.90
   5  -3   8   13.10    7.33
  -5   3  -8    3.90    1.96
  -5   3   8    2.47    2.31
  -5   3   9   14.26    8.79
   5  -3   9   18.07    3.00
   5   3   9   22.19    3.29
   5   3  -9   10.34    6.93
  -5   3  -9   18.61    5.54
   5  -3   9   12.56    7.41
  -5  -3   9    4.89    5.28
  -5   3   9   21.03    8.03
   5  -3   9   16.05    8.90
   5   3  10   28.77    3.87
   5  -3  10   34.36    4.36
   5   3 -10   12.81    7.34
  -5   3 -10   38.44    7.55
  -5  -3  10   19.05    6.68
  -5   3  10   21.50    7.56
   5  -3  10   30.11   11.18
  -5  -3  11    1.98    2.02
   5  -3  11    2.52    2.64
   5   3  11    5.17    2.42
   5   3 -11    7.82    7.29
  -5   3 -11    8.52    5.39
  -5  -3  11    2.24    5.05
  -5   3  11   -2.67    6.57
   5  -3  11    3.49    9.76
  -5  -3  12  125.43   10.25
   5  -3  12  108.41   10.03
  -5   3  12  109.26    9.67
   5   3  12  113.68    9.50
  -5  -3  12  119.50   12.78
   5   3 -12  132.31   19.47
  -5   3 -12  110.56   13.83
   5  -3  12  132.70   22.26
  -5   3  12  113.50   13.35
  -5  -3  13   39.06    5.44
   5  -3  13   24.31    5.03
  -5   3  13   26.93    4.90
   5   3  13   32.68    4.83
   5   3 -13   36.50   10.69
  -5  -3  13   37.77    7.50
  -5   3  13   50.11    8.95
  -5   3 -13   34.11    8.59
   5  -3  13   21.65   11.20
  -5  -3  14  739.74   44.68
   5  -3  14  675.12   45.17
  -5   3 -14  656.67   50.03
  -5   3  14  657.56   44.38
  -5  -3  14  795.79   47.77
  -5   3  14  770.24   48.70
   5   3 -14  829.35   60.49
  -5  -3  15    4.63    2.77
   5  -3  15    6.04    3.67
   5   3 -15   23.23    9.26
  -5  -3  15    6.61    4.51
  -5   3  15    4.36    5.63
  -5   3 -15    2.94    6.75
  -5   3 -16  166.47   16.55
  -5  -3  16  134.20   11.61
   5  -3  16  124.63   12.53
  -5  -3  16  164.78   14.33
  -5   3  16  168.20   15.13
  -5  -3  17   10.56    3.30
   5  -3  17   19.76    4.79
  -5  -3  17   15.53    5.13
  -5   3  17   23.40    6.09
  -5   3 -17   17.97    6.19
   5  -3  18    0.60    2.87
  -5   3  18   -0.81    4.37
  -5  -3  18   -2.14    3.78
  -5   3 -18    0.80    3.66
  -5  -3  19    2.38    3.38
  -5   3  19    2.03    3.73
  -5  -3  20    3.76    2.76
  -5   3  20    2.64    3.11
  -5  -3  21    2.38    2.04
  -5   3  21   -0.38    2.41
   5   4   0 2839.62  170.25
  -5   4   0 2863.03  164.62
   5   4   1  186.73   18.10
   5   4  -1  196.55   18.64
   5   4  -1  194.04   17.55
  -5   4  -1  208.72   13.76
   5   4   2  389.78   29.90
   5   4  -2  360.85   29.36
   5   4  -2  380.62   27.64
  -5   4  -2  367.60   23.61
  -5   4   2  383.39   23.69
   5   4   3  265.37   23.57
   5   4  -3  279.26   24.92
  -5   4  -3  268.40   17.46
  -5   4   3  262.61   17.46
   5   4  -3  265.40   21.00
   5   4   4 2037.49  127.44
   5   4  -4 2022.91  130.34
   5  -4   4 2101.09  132.21
  -5   4  -4 2165.03  118.85
  -5   4   4 1987.55  118.82
   5   4  -4 1916.13  122.40
   5   4  -5    4.98    6.23
   5  -4   5   -2.69    7.53
  -5   4  -5    3.70    2.05
  -5   4   5    6.07    2.52
   5   4  -6   69.88   15.21
   5  -4   6   67.63   14.24
  -5   4  -6   77.81    6.52
  -5   4   6   68.39    6.81
  -5   4   6  106.91   19.97
   5   4  -7  660.23   54.89
   5  -4   7  565.15   52.98
   5  -4   7  674.47   53.45
  -5   4  -7  705.71   40.20
  -5   4   7  623.54   40.54
  -5   4   7  713.31   60.32
  -5   4  -8 1628.87   99.11
  -5  -4   8 1346.99   99.58
  -5   4   8 1555.05  102.97
   5   4  -8 1664.82  110.94
   5  -4   8 1618.84  113.02
   5  -4   8 1806.90  110.95
  -5   4  -8 1830.55   95.56
  -5   4   8 1538.08   95.83
  -5   4   8 1654.86  116.77
  -5   4   9   69.14   15.49
   5  -4   9   60.64    6.09
   5   4  -9   50.14   12.36
  -5   4  -9   72.84    9.70
   5  -4   9   62.49   15.48
  -5  -4   9   47.14    9.10
  -5   4   9   72.33   12.02
   5  -4   9   38.42   11.14
   5  -4  10   48.99    5.74
   5   4 -10   49.48   12.05
  -5   4 -10   53.04    8.83
  -5  -4  10   52.51    8.65
  -5   4  10   37.63    8.64
   5  -4  10   41.01   13.79
  -5  -4  11   72.27    6.94
   5  -4  11   75.76    7.59
   5   4 -11   39.57   11.84
  -5   4 -11   67.03   10.65
  -5  -4  11   71.33    9.65
  -5   4  11   55.61   10.13
   5  -4  11   73.23   17.33
  -5  -4  12  786.71   48.94
   5  -4  12  786.12   49.61
  -5   4 -12  726.80   54.35
  -5  -4  12  824.29   52.29
  -5   4  12  788.56   53.71
   5   4 -12  935.64   64.26
   5  -4  12  888.27   67.90
  -5  -4  13  135.35   11.01
   5  -4  13  116.92   11.46
  -5  -4  13  140.22   13.44
  -5   4  13  148.44   14.75
   5   4 -13  116.03   19.47
  -5   4 -13   96.91   14.78
   5  -4  13  170.69   24.38
  -5  -4  14  142.08   11.33
   5  -4  14  105.85   11.62
  -5  -4  14  133.07   13.27
  -5   4  14  143.16   14.64
   5   4 -14  113.55   18.95
  -5   4 -14  131.26   16.01
   5  -4  14  162.53   23.78
  -5  -4  15   56.92    6.91
   5  -4  15   66.57    8.19
   5   4 -15   64.38   13.92
  -5  -4  15   69.83    9.09
  -5   4  15   68.67   10.06
  -5   4 -15   60.95   10.73
  -5   4 -16  537.71   38.47
  -5  -4  16  512.64   33.25
   5  -4  16  469.72   34.26
  -5  -4  16  607.88   36.17
  -5   4  16  537.37   36.63
  -5   4 -17  199.60   18.01
  -5  -4  17  182.24   14.30
   5  -4  17  195.12   15.54
  -5  -4  17  236.68   16.98
  -5   4  17  208.93   17.31
   5  -4  18   51.93    6.20
  -5  -4  18   56.04    7.05
  -5   4  18   61.66    7.92
  -5   4 -18   42.34    7.31
  -5   4  19   21.00    4.66
  -5  -4  19   16.35    3.93
  -5   4 -19   11.05    3.95
  -5  -4  20  305.92   19.69
  -5   4  20  282.04   19.96
  -5  -4  21   69.89    5.80
  -5   4  21   63.25    5.91
   5   5   0 1050.61   68.27
  -5   5   0 1047.05   61.99
   5   5   1 1706.61  107.96
   5   5  -1 1645.90  106.87
  -5   5  -1 1769.63  101.09
   5   5  -2    2.51    3.34
   5   5  -2    1.64    5.25
   5   5   2    6.11    4.28
  -5   5  -2    6.75    1.96
  -5   5   2    5.76    2.01
   5   5  -3 2046.67  129.12
   5   5   3 2101.35  131.83
   5   5  -3 2184.69  134.01
  -5   5  -3 2259.50  123.41
  -5   5   3 2020.06  123.22
   5   5   4   64.65   11.72
   5   5  -4   61.13   13.04
  -5   5  -4   85.00    6.95
  -5   5   4   73.71    6.79
   5   5   5 1629.37  107.79
   5   5  -5 1627.61  113.00
  -5   5  -5 1758.25   97.82
  -5   5   5 1587.75   97.89
  -5   5   5 1869.77  122.79
   5   5  -6   45.18   12.15
   5  -5   6   45.84   13.18
   5  -5   6   51.75   12.96
  -5   5  -6   38.89    4.66
  -5   5   6   43.88    5.32
  -5   5   6   56.97   18.34
  -5   5  -7 1034.27   66.21
   5   5  -7  995.10   78.06
   5  -5   7 1003.99   79.11
   5  -5   7 1202.18   78.05
  -5   5  -7 1104.55   63.06
  -5   5   7 1005.19   63.62
  -5   5   7 1218.97   90.59
  -5   5  -8  418.78   30.64
  -5   5   8  367.78   33.55
   5   5  -8  456.91   40.72
   5  -5   8  460.44   43.14
   5  -5   8  391.13   26.80
   5  -5   8  449.51   39.18
  -5   5  -8  456.64   27.00
  -5   5   8  437.60   28.02
  -5  -5   8  385.47   30.96
  -5   5   8  491.82   49.62
   5  -5   9 1049.14   66.59
  -5   5  -9 1181.69   71.55
  -5  -5   9 1037.44   70.29
  -5   5   9 1165.68   74.66
   5  -5   9 1256.61   86.43
   5  -5   9 1326.67   81.80
   5   5  -9 1198.59   82.04
  -5  -5  10  488.01   30.76
   5  -5  10  449.58   31.10
  -5   5 -10  486.93   35.85
  -5  -5  10  452.62   34.08
  -5   5  10  526.30   37.77
   5   5 -10  554.85   44.55
   5  -5  10  543.95   48.22
   5  -5  10  594.06   45.08
  -5  -5  11  633.76   39.79
   5  -5  11  597.46   40.37
  -5   5 -11  672.37   45.90
  -5  -5  11  628.21   42.80
   5   5 -11  794.20   56.23
   5  -5  11  572.02   54.90
  -5   5  11  737.92   46.57
  -5  -5  12   39.86    5.09
   5  -5  12   30.08    5.36
   5   5 -12   27.79    9.70
  -5  -5  12   29.97    6.32
  -5   5  12   42.07    8.19
  -5   5 -12   27.36    8.37
   5  -5  12   23.92   10.64
  -5  -5  13  894.48   55.36
   5  -5  13  847.95   56.26
  -5   5 -13  915.61   61.64
  -5  -5  13  941.19   57.93
  -5   5  13  965.51   60.31
   5   5 -13 1009.12   71.16
   5  -5  13  913.02   72.16
  -5  -5  14  373.22   25.31
   5  -5  14  336.82   26.15
  -5   5 -14  432.14   31.83
  -5  -5  14  409.72   27.79
  -5   5  14  403.90   29.53
   5   5 -14  387.39   38.72
   5  -5  14  389.45   39.65
  -5   5 -15  596.93   41.68
  -5  -5  15  568.80   36.14
   5  -5  15  525.74   37.13
  -5  -5  15  570.10   38.17
  -5   5  15  618.42   40.14
   5  -5  15  588.55   50.81
   5   5 -15  622.17   51.29
  -5  -5  16   11.95    3.51
   5  -5  16   14.14    4.12
  -5  -5  16   16.41    5.00
  -5   5  16   15.88    6.01
  -5   5 -16   20.59    6.99
  -5   5 -17  400.34   30.18
   5  -5  17  399.50   27.55
  -5  -5  17  429.45   28.43
  -5   5  17  443.04   29.76
  -5  -5  18   67.69    7.34
  -5   5  18   56.18    7.52
  -5   5 -18   62.64    8.48
  -5   5 -19  235.27   18.79
  -5  -5  19  292.76   18.71
  -5   5  19  277.00   19.28
  -5   5 -20  131.71   10.90
  -5  -5  20  154.31   11.03
  -5   5  20  171.85   11.75
  -5  -5  21  172.36   11.40
  -5   5  21  175.34   11.69
   5   6   0 1156.62   74.55
  -5   6   0 1112.07   66.40
   5   6   1  415.72   34.83
   5   6  -1  453.56   35.19
  -5   6  -1  451.56   28.07
   5   6  -2  590.11   49.07
   5   6   2  698.85   49.41
  -5   6  -2  684.86   40.97
  -5   6   2  656.45   40.93
   5   6  -2  741.69   49.33
   5   6  -3  115.31   15.40
   5   6   3  144.44   17.57
   5   6  -3  140.41   18.62
  -5   6  -3  148.07   10.65
  -5   6   3  134.43   10.51
   5   6   4 1853.23  115.76
   5   6  -4 1878.60  120.73
  -5   6  -4 1852.22  104.98
  -5   6   4 1712.15  105.02
  -5   6   4 1852.90  130.35
   5   6   5    6.41    5.98
   5   6  -5   -3.07    8.13
  -5   6  -5    3.66    2.28
  -5   6   5    3.83    2.85
  -5   6   5   -5.03   13.34
  -5   6  -6  558.00   38.40
   5   6   6  549.23   46.45
   5   6  -6  550.65   50.72
   5  -6   6  588.98   51.60
   5  -6   6  606.84   48.90
  -5   6   6  571.22   36.33
  -5   6  -6  603.59   35.83
  -5   6   6  564.90   36.39
  -5   6   6  575.98   62.61
  -5   6  -7  574.19   39.78
   5   6  -7  609.79   51.84
   5  -6   7  583.73   52.42
  -5   6   7  543.23   44.18
   5  -6   7  611.86   48.66
  -5   6   7  593.46   37.01
  -5   6   7  604.63   61.98
  -5   6  -8  726.85   45.65
  -5  -6   8  609.49   44.17
  -5   6   8  659.09   48.94
   5   6  -8  834.42   58.63
   5  -6   8  722.86   58.69
   5  -6   8  598.58   40.84
   5  -6   8  810.47   55.34
  -5   6   8  830.91   69.36
  -5  -6   9    4.90    2.44
   5  -6   9    4.57    2.87
   5   6  -9    5.68    7.11
  -5   6  -9    4.84    4.91
  -5  -6   9    1.98    4.11
  -5   6   9    8.00    6.94
   5  -6   9    3.40    7.96
   5  -6   9    2.44    6.47
  -5  -6  10  356.91   21.87
   5  -6  10  273.28   21.98
  -5   6 -10  342.97   27.16
  -5  -6  10  295.54   23.97
  -5   6  10  349.25   28.03
   5   6 -10  361.27   34.56
   5  -6  10  409.35   38.85
  -5  -6  11  252.46   17.24
   5  -6  11  234.35   18.03
  -5   6 -11  227.07   22.08
  -5  -6  11  248.83   19.68
  -5   6  11  239.87   22.01
   5   6 -11  242.69   27.96
   5  -6  11  265.88   31.30
  -5  -6  12  649.66   39.35
   5  -6  12  587.50   40.12
  -5   6 -12  640.23   45.03
  -5  -6  12  595.05   41.12
  -5   6  12  650.91   44.41
   5   6 -12  725.45   54.92
   5  -6  12  642.07   55.40
  -5  -6  13  557.06   33.88
   5  -6  13  490.34   34.59
  -5   6 -13  531.53   39.16
  -5  -6  13  518.37   35.58
  -5   6  13  537.65   38.04
   5   6 -13  571.23   48.34
   5  -6  13  523.23   48.60
  -5  -6  14  360.75   24.21
  -5   6 -14  434.83   30.57
   5  -6  14  325.59   24.96
  -5  -6  14  393.31   26.33
  -5   6  14  355.40   27.80
   5   6 -14  339.93   36.25
   5  -6  14  375.28   37.97
  -5  -6  15   41.50    5.51
   5  -6  15   46.63    6.53
  -5   6  15   42.24    8.05
  -5  -6  15   33.86    6.45
  -5   6 -15   43.76    8.95
  -5   6 -16  325.16   24.51
  -5  -6  16  280.20   19.89
   5  -6  16  275.30   20.77
  -5  -6  16  305.04   21.57
  -5   6  16  336.23   23.60
  -5  -6  17   46.73    6.08
   5  -6  17   38.26    5.32
  -5   6  17   54.22    7.39
  -5   6 -17   35.63    7.26
  -5   6 -18  123.50   11.67
  -5  -6  18  119.20   10.05
  -5   6  18  107.62   10.66
  -5  -6  19    4.38    2.46
  -5   6  19    7.52    3.18
  -5   6 -19    4.46    2.97
  -5   6 -20  162.65   11.38
  -5  -6  20  147.53   10.61
  -5   6  20  152.16   11.12
   5   7   0 1788.93  115.73
  -5   7   0 1813.45  105.88
   5   7  -1   21.80    8.18
  -5   7  -1   25.12    4.20
   5   7  -2  370.12   31.89
   5   7  -2  353.64   32.06
   5   7   2  339.34   30.60
  -5   7  -2  354.38   22.41
  -5   7   2  313.19   22.21
   5   7  -3  162.68   20.86
   5   7   3  174.98   20.51
   5   7  -3  157.85   22.19
  -5   7  -3  171.67   12.86
  -5   7   3  181.09   13.16
  -5   7   4   21.92    4.08
  -5   7  -4   18.94    4.78
   5   7  -4   18.11    9.69
   5   7   4   15.56    7.18
  -5   7  -4   19.78    3.83
  -5   7   4   18.11    3.96
  -5   7   5   49.64   20.75
  -5   7   5   51.00    6.25
  -5   7   5   42.78    5.89
   5   7   5   35.45   11.07
  -5   7  -5   50.38    8.21
   5   7  -5   63.25   15.59
  -5   7  -5   76.45    6.90
  -5   7   6   59.21   24.09
   5   7   6   38.74    9.68
  -5   7   6   38.70    5.52
   5   7   6   50.14   11.53
  -5   7  -6   40.47    7.08
   5   7  -6   40.98   13.36
   5  -7   6   33.65   10.73
  -5   7   7    6.25   15.65
  -5   7   7    9.73    3.48
   5   7   7    4.88    7.06
  -5   7  -7    7.39    5.31
   5   7  -7    9.88    8.25
   5  -7   7   23.67   10.37
  -5   7   7    5.46    7.04
   5  -7   7   15.07    7.71
  -5   7  -8  538.61   39.67
  -5   7   8  580.39   43.34
   5   7  -8  559.37   49.91
   5  -7   8  562.70   50.79
   5   7   8  599.97   43.99
   5  -7   8  554.31   46.63
  -5  -7   9   34.83    4.70
   5  -7   9   38.92    5.71
   5   7  -9   32.58   10.32
  -5   7  -9   35.63    8.56
  -5  -7   9   20.68    5.72
  -5   7   9   30.28    8.79
   5  -7   9   40.32   13.09
  -5   7   9   41.48    7.23
   5  -7   9   42.96   10.73
  -5  -7  10  530.47   32.14
   5  -7  10  469.30   32.83
  -5   7  10  522.67   33.37
  -5   7 -10  511.98   37.71
  -5  -7  10  464.43   33.90
   5   7 -10  571.24   46.79
   5  -7  10  555.67   48.88
  -5   7  10  501.74   37.86
   5  -7  11   11.52    4.17
   5   7 -11    2.88    6.24
  -5   7 -11    8.21    6.96
  -5  -7  11    4.79    4.07
  -5   7  11   12.95    6.97
   5  -7  11    6.55    7.11
  -5   7  11    9.35    3.75
  -5  -7  11    3.02    2.42
  -5  -7  12  147.28   11.46
   5  -7  12  131.79   12.21
  -5   7 -12  155.19   16.45
  -5  -7  12  140.46   12.90
  -5   7  12  149.44   15.52
   5   7 -12  119.32   19.56
   5  -7  12  144.96   22.06
  -5  -7  13   20.24    3.88
   5  -7  13   16.64    4.51
   5   7 -13   11.80    8.72
  -5  -7  13   17.42    4.57
  -5   7  13   27.91    7.21
  -5   7 -13   18.42    6.87
   5  -7  13   27.98   10.70
  -5  -7  14   40.42    4.99
   5  -7  14   30.95    5.43
   5   7 -14   53.15   12.68
  -5  -7  14   28.35    5.66
  -5   7  14   37.00    7.66
  -5   7 -14   41.04    8.25
   5  -7  14   26.63    9.99
  -5  -7  15   42.77    5.34
   5  -7  15   29.98    5.36
  -5  -7  15   36.37    5.75
  -5   7  15   39.72    7.40
  -5   7 -15   50.09    8.87
  -5  -7  16   23.46    3.88
   5  -7  16   24.58    4.73
  -5  -7  16   27.63    4.80
  -5   7 -16   17.16    6.33
  -5   7  16   24.15    5.92
  -5  -7  17    7.68    3.33
  -5   7  17    5.73    4.03
  -5   7 -17   14.56    5.16
  -5   7 -18  140.59   12.16
  -5  -7  18  123.51   10.06
  -5   7  18  127.72   11.06
  -5  -7  19   14.45    2.53
  -5   7  19   10.97    3.01
  -5   7 -19   12.97    3.60
  -5   7 -20  177.28   12.53
   5   8   0  565.48   46.64
  -5   8   0  575.93   36.10
  -5   8   0  550.47   51.49
   5   8   1  312.05   31.46
   5   8  -1  322.21   31.94
  -5   8  -1  347.75   36.24
  -5   8   1  312.68   37.46
  -5   8   1  329.08   22.63
   5   8  -2  160.07   21.66
   5   8   2  151.60   20.17
   5   8  -2  136.60   20.88
  -5   8   2  181.16   13.60
  -5   8   2  180.21   28.93
  -5   8  -3  644.05   42.52
  -5   8   3  641.61   41.26
   5   8  -3  612.99   53.49
   5   8  -3  750.93   57.25
   5   8   3  802.56   54.73
  -5   8   3  655.93   41.45
  -5   8   4  384.98   25.71
  -5   8  -4  399.66   27.38
   5   8   4  358.99   34.92
   5   8  -4  350.38   37.97
  -5   8   4  364.91   25.41
  -5   8   5    7.22   16.90
  -5   8   5   10.35    3.41
   5   8   5   12.67    6.74
  -5   8   5    9.89    3.36
  -5   8  -5    9.21    4.63
   5   8   5   -2.63    5.21
   5   8  -5    7.14    8.37
  -5   8   6   59.57   23.88
  -5   8   6   43.67    6.10
   5   8   6   30.91    9.32
   5   8   6   41.42   11.48
  -5   8  -6   53.39    8.41
   5   8  -6   67.96   16.63
  -5   8  -7  518.82   36.65
   5   8   7  511.81   45.55
  -5   8  -7  505.60   33.12
  -5   8   7  561.05   35.85
   5   8  -7  585.82   50.07
   5  -8   7  478.63   46.96
   5   8   7  527.92   40.95
   5  -8   7  496.69   43.76
  -5   8   7  483.75   33.09
  -5   8  -7  489.05   44.62
  -5   8   7  559.66   66.28
  -5   8  -8  203.71   20.32
  -5   8  -8  226.28   17.28
  -5   8   8  256.19   20.40
  -5   8   8  223.53   21.56
   5   8  -8  264.58   30.46
   5  -8   8  243.38   29.87
   5   8   8  278.56   26.38
   5  -8   8  223.72   25.52
  -5   8  -8  188.98   25.00
   5  -8   9  188.02   15.28
  -5   8  -9  209.33   19.56
  -5   8   9  200.63   18.18
  -5   8   9  185.74   18.97
   5   8  -9  233.56   27.65
   5  -8   9  224.51   28.18
   5   8   9  225.58   24.31
  -5   8  10   64.86    8.34
  -5  -8  10   63.71    6.78
   5  -8  10   77.80    8.01
   5   8 -10  101.53   17.52
  -5   8 -10   52.74    9.99
  -5   8  10   50.77    9.39
   5  -8  10   84.77   16.98
  -5   8  11   77.74    9.17
  -5  -8  11   93.69    8.20
   5  -8  11   90.78    9.16
  -5   8 -11   77.93   12.14
   5   8 -11   79.81   16.24
  -5   8  11   93.14   11.75
   5  -8  11   82.95   17.18
  -5  -8  12  392.04   25.38
   5  -8  12  396.08   26.47
  -5   8 -12  370.70   30.01
  -5   8  12  349.16   28.55
   5   8 -12  352.65   37.42
   5  -8  12  373.34   38.66
  -5   8  12  413.18   27.04
  -5  -8  13   17.67    3.88
   5  -8  13   20.02    4.70
  -5  -8  13   25.49    5.19
   5   8 -13   23.71    9.53
  -5   8  13   21.90    6.57
  -5   8 -13   29.57    7.80
   5  -8  13   26.87    9.23
  -5  -8  14   66.07    6.83
   5  -8  14   67.98    7.57
  -5  -8  14   59.24    7.16
  -5   8  14   62.79    8.99
  -5   8 -14   74.10   10.45
  -5  -8  15   82.05    7.40
   5  -8  15   74.40    7.80
  -5  -8  15   76.99    7.80
  -5   8  15   57.13    8.60
  -5   8 -15   75.32   10.01
  -5   8 -16  215.38   18.40
   5  -8  16  213.42   15.88
  -5  -8  16  222.11   15.95
  -5   8  16  257.76   18.13
  -5   8 -17   95.54    9.86
  -5   8  17   79.88    8.47
  -5   8  18    9.75    2.80
  -5   8 -18   12.44    4.09
  -5   8 -19   -0.47    2.48
  -5   8 -20   88.34    7.10
   5   9   0   35.22   11.53
  -5   9   0   40.18    5.55
  -5   9   0   39.73    5.96
  -5   9   0   39.88   13.84
  -5   9   1   17.65    3.79
  -5   9   1   11.78    3.82
  -5   9  -1   18.83    4.75
   5   9  -1   21.50    9.05
   5   9   1   14.23    8.40
  -5   9  -1   14.61    9.73
  -5   9   1   22.46   13.21
  -5   9   2   31.18   15.95
  -5   9   2   13.37    3.72
   5   9   2   25.19    9.31
  -5   9   2   20.29    4.30
   5   9  -2    3.26    7.68
  -5   9  -2   24.06   11.81
   5   9   3  126.28   18.83
  -5   9   3   99.65    9.98
   5   9  -3  135.18   21.96
   5   9  -3   98.97   19.19
  -5   9   3  128.06   10.70
  -5   9  -3   92.43   18.17
  -5   9   4 1176.52   70.54
   5   9   4 1150.00   83.72
   5   9  -4 1103.02   87.70
   5   9   4 1148.88   72.87
  -5   9   4 1153.87   70.11
  -5   9  -4 1194.04   87.24
  -5   9   5   -7.78   16.89
  -5   9   5   21.30    4.92
  -5   9   5   13.07    3.94
   5   9   5   21.09    8.22
  -5   9   5   22.61    5.82
  -5   9  -5   16.08    5.57
   5   9  -5   30.38   12.15
   5   9   5   17.62    9.05
  -5   9  -5   19.12    9.40
  -5   9  -6  627.83   44.87
   5   9   6  605.51   54.23
  -5   9  -6  667.60   42.17
  -5   9   6  656.27   44.14
   5   9  -6  725.61   60.18
   5   9   6  650.19   48.30
  -5   9   6  682.89   42.08
  -5   9  -6  651.01   56.16
  -5   9   6  789.52   82.61
   5   9   7   78.57   14.29
   5   9   7   69.24   14.80
  -5   9  -7   92.61    9.00
  -5   9   7   90.86   11.19
  -5   9  -7   70.27   10.89
   5   9  -7   70.23   16.67
   5  -9   7   65.69   13.69
  -5   9   7   64.00    7.95
  -5   9  -7   49.52   14.32
   5   9   8  111.49   18.57
  -5   9  -8  105.66   10.73
  -5   9  -8   94.18   13.22
   5   9  -8  149.04   22.23
   5  -9   8  128.47   20.73
  -5   9   8  117.59   13.87
  -5   9   9  122.81   12.98
  -5   9   9   93.96   10.16
   5   9   9   84.42   17.34
  -5   9  -9   73.16    9.30
  -5   9  -9   96.41   12.74
   5   9  -9  116.75   19.25
   5  -9   9  107.01   19.10
  -5   9  10   26.52    5.77
  -5  -9  10   41.06    5.18
   5  -9  10   39.22    5.77
  -5   9 -10   49.48    9.48
   5   9 -10   51.93   13.13
   5  -9  10   28.75   11.14
  -5  -9  11    1.01    2.49
  -5   9 -11   -1.30    5.98
   5   9 -11    3.01    7.52
   5  -9  11   -3.10    6.14
   5  -9  11   -3.15    3.48
  -5   9  11   -0.79    3.28
  -5  -9  12  225.81   15.89
  -5   9 -12  192.28   19.32
   5  -9  12  231.19   16.72
  -5   9  12  202.16   17.87
   5   9 -12  223.20   27.71
   5  -9  12  263.82   29.22
  -5   9  12  231.75   17.85
  -5  -9  13   42.99    5.34
   5  -9  13   37.74    5.62
  -5   9  13   34.53    6.58
  -5   9 -13   45.81    8.60
   5   9 -13   29.32    9.62
  -5   9  13   47.16    6.66
  -5   9 -14  394.16   28.19
  -5  -9  14  371.41   24.15
   5  -9  14  399.17   24.96
  -5   9  14  319.35   25.44
   5  -9  15   -0.97    2.23
  -5   9  15    1.27    2.80
  -5   9 -15   -0.93    4.73
  -5   9 -16  164.51   14.54
  -5   9 -17   -0.68    3.57
  -5   9 -18    4.37    3.21
  -5   9 -19    2.01    2.16
  -5  10   0  861.23   52.29
   5  10   0  900.14   70.26
  -5  10   0  833.35   73.50
  -5  10   0  806.07   52.67
  -5  10  -1   29.39   12.94
  -5  10   1   29.96   15.98
  -5  10   1   22.28    4.73
  -5  10  -1   21.23    5.20
  -5  10  -1   31.04    5.41
   5  10  -1   40.98   13.25
   5  10   1   34.16   11.78
  -5  10   1   19.84    4.81
   5  10  -2  358.87   42.60
  -5  10  -2  435.69   30.17
  -5  10   2  339.04   48.98
  -5  10   2  466.69   29.41
  -5  10  -2  421.30   29.27
  -5  10   2  437.52   29.74
   5  10   2  413.51   41.70
  -5  10   2  429.56   29.08
  -5  10  -2  446.57   46.16
  -5  10   3  397.85   52.73
  -5  10  -3  373.01   27.43
  -5  10   3  416.97   26.61
   5  10  -3  391.10   43.13
  -5  10   3  349.23   26.48
  -5  10  -3  387.07   26.58
   5  10   3  387.93   39.05
  -5  10   3  385.11   26.12
  -5  10  -3  273.09   37.24
  -5  10   4 1356.47   80.19
  -5  10  -4 1329.07   80.12
  -5  10   4 1272.62   80.81
   5  10   4 1337.47   95.62
   5  10  -4 1406.25  100.78
   5  10   4 1278.84   82.04
  -5  10   4 1350.49   79.71
  -5  10  -4 1197.15   96.40
  -5  10   5   54.97   22.14
  -5  10   5   48.58    7.13
  -5  10   5   48.72    6.63
   5  10   5   38.55    9.09
  -5  10  -5   55.00    7.39
  -5  10   5   55.80    8.47
   5  10  -5   55.46   15.92
   5  10   5   42.74   12.65
  -5  10  -5   55.09   15.49
  -5  10  -6  217.50   30.06
  -5  10   6  254.23   18.77
   5  10   6  254.82   30.56
  -5  10  -6  223.73   17.97
  -5  10   6  238.53   20.65
   5  10  -6  205.48   29.67
   5  10   6  274.38   24.54
  -5  10   6  222.37   17.43
  -5  10  -7  153.41   24.50
   5  10   7  180.90   25.44
  -5  10  -7  161.66   14.39
   5  10  -7  178.38   26.43
   5  10   7  182.85   22.14
  -5  10   7  170.51   17.53
  -5  10  -8 1147.15   75.18
  -5  10  -8 1136.65   71.43
  -5  10   8 1231.86   75.57
   5  10  -8 1150.98   86.55
   5 -10   8 1188.26   86.88
   5  10   8 1152.07   81.19
  -5  10   9   53.28    7.97
   5  10   9   51.75   14.87
  -5  10  -9   73.72    8.55
  -5  10   9   58.66    9.89
  -5  10  -9   77.10   11.14
   5  10  -9   66.69   15.00
   5 -10   9   41.47   12.78
  -5  10  10  103.20   11.47
  -5 -10  10  116.32    9.78
   5 -10  10  126.30   10.64
  -5  10 -10  102.80   13.76
   5  10 -10  147.18   21.51
   5 -10  10  124.94   19.87
  -5  10  11  335.36   25.32
  -5  10 -11  311.58   27.18
  -5 -10  11  374.18   23.60
   5 -10  11  355.62   24.04
   5  10 -11  416.45   38.42
   5 -10  11  337.17   35.98
  -5  10 -12  678.44   44.57
  -5 -10  12  660.90   39.85
   5 -10  12  615.04   40.12
   5  10 -12  606.18   53.48
   5 -10  12  685.51   54.86
  -5  10  12  622.58   41.74
  -5 -10  13   95.52    8.17
   5 -10  13   81.62    8.11
  -5  10 -13   76.74   10.98
  -5  10  13   77.66    9.18
  -5  10 -14  147.13   13.73
  -5 -10  14  144.05   10.62
   5 -10  14  120.00   10.53
  -5  10  14  127.54   11.85
  -5  10 -15    4.99    3.97
  -5  10 -16  274.33   20.30
  -5  10 -17  205.74   15.57
  -5  10 -18   56.60    6.16
  -5  10 -19    0.64    1.91
  -5  11   0  251.91   36.63
  -5  11   0  272.63   19.37
  -5  11   0  226.20   19.41
   5  11   0  232.36   32.91
  -5  11   0  258.79   19.58
  -5  11   1  924.09   54.70
  -5  11  -1  807.64   54.92
   5  11   1  988.32   75.96
   5  11  -1  796.86   73.28
  -5  11   1  887.51   54.83
  -5  11  -1  946.23   77.52
  -5  11   1  779.72   76.78
  -5  11  -1  857.86   55.32
  -5  11  -2   57.06   17.54
  -5  11   2   74.63   22.27
  -5  11   2   47.42    6.95
   5  11   2   38.85   13.97
  -5  11   2   35.69    6.31
  -5  11  -2   46.31    7.65
  -5  11  -2   38.77    7.04
  -5  11   2   47.78    7.51
   5  11  -2   67.06   17.86
  -5  11  -3 1109.51   69.89
   5  11  -3 1021.11   88.86
  -5  11   3 1145.78   68.54
  -5  11  -3 1050.05   68.57
  -5  11   3 1080.84   69.35
   5  11   3 1234.18   88.37
  -5  11   3 1132.49   68.11
  -5  11  -3 1082.46   88.45
  -5  11   3 1370.19  106.07
  -5  11  -4  374.44   27.43
  -5  11   4  392.45   25.99
   5  11  -4  349.33   41.67
  -5  11  -4  332.01   25.57
  -5  11   4  328.75   26.33
   5  11   4  270.45   35.96
   5  11   4  381.63   27.63
  -5  11   4  376.78   25.17
  -5  11  -4  327.99   39.62
  -5  11   5 1048.87   64.76
  -5  11  -5 1056.02   67.10
  -5  11  -5  964.36   64.38
  -5  11   5 1074.52   66.86
   5  11   5 1132.44   82.96
   5  11  -5 1173.86   85.94
   5  11   5 1170.94   68.76
  -5  11   5  998.15   63.58
  -5  11  -5  880.29   80.02
  -5  11  -6   37.17   13.80
  -5  11   6   53.90    7.64
  -5  11   6   42.25    6.43
   5  11   6   42.63   10.40
  -5  11  -6   38.07    6.99
   5  11   6   44.20   13.68
   5  11  -6   49.75   14.98
  -5  11   6   70.61   10.67
   5  11   7  740.98   66.55
  -5  11   7  869.72   55.71
   5  11  -7  787.34   67.13
  -5  11  -7  759.34   51.49
   5  11   7  928.85   60.05
   5  11   8  128.08   19.88
  -5  11  -8   96.44   10.96
  -5  11   8  112.99   13.68
   5  11  -8   97.14   18.78
   5 -11   8  128.52   20.60
  -5  11   9  730.89   47.16
  -5  11  -9  711.43   45.84
   5  11  -9  645.93   58.44
   5 -11   9  797.77   61.48
  -5  11   9  701.62   47.73
   5  11   9  769.68   57.45
  -5  11  10  411.73   30.18
  -5  11 -10  442.42   32.55
   5 -11  10  435.64   28.22
   5  11 -10  403.32   40.78
   5 -11  10  439.67   41.74
  -5  11  11  564.84   38.58
  -5  11 -11  594.94   40.80
  -5 -11  11  582.10   36.32
   5 -11  11  595.38   36.77
   5  11 -11  503.39   48.71
   5 -11  11  595.24   50.55
  -5 -11  12    7.96    3.23
   5 -11  12    6.14    3.29
  -5  11 -12   16.87    6.60
  -5  11  12    4.13    4.46
  -5  11 -13  608.19   41.41
  -5 -11  13  650.82   38.03
   5 -11  13  599.04   38.04
  -5  11  13  583.52   39.86
  -5  11 -14  171.51   14.25
   5 -11  14  139.16   11.16
  -5  11  14  148.60   12.82
  -5  11 -15  224.96   17.44
  -5  11  15  215.82   16.11
  -5  11 -16   60.97    7.38
  -5  11 -17  328.34   22.01
  -5  11 -18   51.65    5.34
  -5  12   0  777.95   50.01
   5  12   0  790.23   72.30
  -5  12   0  835.74   50.77
  -5  12   0  837.31   74.41
  -5  12   0  734.98   50.91
  -5  12  -1   93.54   21.09
  -5  12   1   81.67    9.23
   5  12  -1   78.84   19.92
  -5  12  -1   55.56    8.39
  -5  12  -1   72.88    9.62
   5  12   1   70.31   18.99
  -5  12   1   80.03    9.06
  -5  12   2  311.03   23.25
  -5  12  -2  334.42   24.42
  -5  12   2  301.46   24.23
   5  12  -2  263.31   38.46
   5  12   2  296.28   38.84
  -5  12   2  344.60   23.38
  -5  12  -2  387.29   43.19
  -5  12  -2  303.34   24.05
  -5  12   3  479.70   31.78
  -5  12  -3  465.72   32.35
  -5  12   3  447.12   32.65
   5  12   3  401.84   46.75
  -5  12   3  480.91   31.31
  -5  12  -3  447.41   49.23
   5  12  -3  388.77   47.54
  -5  12  -3  451.10   32.93
  -5  12  -4  953.33   62.48
  -5  12   4  957.00   60.79
   5  12  -4  978.80   81.97
  -5  12   4  968.39   62.36
  -5  12  -4  919.41   60.96
   5  12   4 1025.32   81.18
   5  12   4 1042.40   62.27
  -5  12   4  951.87   59.85
  -5  12  -4 1014.74   80.99
  -5  12  -5   11.74   10.97
  -5  12   5   15.72    4.89
  -5  12   5   14.80    4.39
   5  12   5   16.89    6.79
   5  12  -5    8.01    7.96
  -5  12  -5   10.75    5.01
  -5  12   5   11.81    6.14
  -5  12  -5   16.31    6.06
   5  12   5   12.25    8.88
  -5  12  -6  293.40   24.57
   5  12   6  317.36   37.27
  -5  12  -6  285.64   22.46
  -5  12   6  330.38   25.48
   5  12  -6  302.19   35.83
   5  12   6  336.23   26.91
  -5  12   6  284.90   21.34
  -5  12  -7  193.39   19.72
   5  12   7  149.83   26.61
  -5  12  -7  221.69   17.81
  -5  12   7  246.28   20.96
   5  12  -7  241.82   29.97
   5  12   7  222.06   23.12
  -5  12   8  988.13   64.00
  -5  12   8 1065.60   65.79
   5  12  -8 1030.69   78.04
   5 -12   8  890.52   74.83
  -5  12  -8  942.59   62.28
  -5  12   9   92.62   10.47
  -5  12  -9   73.91    8.49
  -5  12   9   64.19    9.24
   5  12  -9   43.22   12.86
   5 -12   9   75.94   15.95
  -5  12  10  189.31   17.55
   5 -12  10  234.00   16.05
  -5  12  11  176.87   16.43
  -5 -12  11  221.02   14.72
   5 -12  11  194.56   14.60
  -5  12 -12  571.91   39.21
  -5 -12  12  592.91   35.98
   5 -12  12  592.16   36.11
  -5  12  12  541.18   38.15
   5 -12  13   69.75    6.76
  -5  12 -13   75.89    9.33
  -5  12  13   75.46    8.74
  -5  12 -14  101.56    9.93
  -5  12  14   81.31    8.88
  -5  12  15    0.49    2.84
  -5  12 -15    0.62    3.56
  -5  12 -16  293.09   20.08
  -5  12 -17   47.08    5.23
  -5  12 -18   60.39    5.22
  -5  13   0  953.97   58.93
  -5  13   0  902.69   59.55
   5  13   0  949.20   84.30
  -5  13   0  930.88   58.84
  -5  13   1  140.17   12.89
  -5  13  -1  120.34   12.59
  -5  13  -1  122.33   13.28
   5  13   1  104.25   24.63
  -5  13   1  132.23   12.46
   5  13  -1  141.67   27.65
  -5  13  -1  135.29   13.10
  -5  13   2  546.22   36.82
  -5  13  -2  520.24   37.40
   5  13   2  594.32   59.12
  -5  13   2  542.38   36.27
   5  13  -2  473.24   55.29
  -5  13  -2  583.75   37.87
  -5  13   2  538.65   37.68
  -5  13   3  199.36   16.80
  -5  13  -3  190.88   17.27
  -5  13   3  201.26   17.75
   5  13  -3  150.00   28.50
  -5  13   3  209.67   16.22
   5  13   3  188.90   30.83
  -5  13  -3  193.24   17.71
  -5  13   4  125.23   12.17
   5  13  -4  115.33   22.64
  -5  13  -4   98.68   11.69
   5  13   4  106.95   23.44
  -5  13   4  104.62   10.75
  -5  13   4  128.74   13.31
  -5  13  -4  124.79   13.19
  -5  13   5   84.45    9.97
   5  13  -5  119.36   21.19
   5  13   5   90.00   11.30
  -5  13  -5   85.42   11.03
  -5  13  -5   70.64    9.26
  -5  13   5   84.44   11.31
   5  13   5   62.65   17.82
  -5  13   5   69.34    8.36
   5  13   6    7.55    6.30
   5  13  -6   -3.46    7.51
  -5  13  -6    5.79    5.43
  -5  13  -6   14.46    5.11
  -5  13   6   18.04    7.14
   5  13   6    4.33    7.66
  -5  13  -7  222.51   19.70
  -5  13  -7  215.92   17.60
  -5  13   7  244.46   20.53
   5  13   7  242.74   21.98
  -5  13   8   97.21   11.63
  -5  13  -8   91.23    9.82
  -5  13   8  103.10   11.82
  -5  13  -8   92.90   11.78
   5 -13   8   88.00   16.98
  -5  13  -9  147.82   14.34
  -5  13   9  125.76   12.93
  -5  13   9  115.07   12.10
  -5  13  10  576.54   40.41
  -5  13 -10  577.73   40.92
  -5 -13  10  634.51   37.80
   5 -13  10  612.53   37.82
  -5 -13  11  107.05    8.42
   5 -13  11   83.56    8.01
  -5  13  11   93.99   10.79
  -5  13  12   46.51    7.32
  -5  13  13   20.12    5.08
  -5  13  14    1.14    3.08
  -5  13 -15   79.64    7.46
  -5  13  15   56.55    6.37
  -5  13 -16    8.83    2.70
  -5  13 -17    4.53    1.92
  -5  14   0  297.06   22.74
  -5  14   0  314.75   23.56
   5  14   0  305.80   41.87
  -5  14   0  281.12   22.27
  -5  14   1   51.99    7.87
  -5  14  -1   38.13    7.43
   5  14   1   60.38   20.21
  -5  14   1   49.81    7.48
  -5  14  -1   51.47    8.09
  -5  14  -1   58.85    8.70
   5  14  -1   47.31   17.62
   5  14   2   81.06   21.91
  -5  14   2   89.21   10.18
  -5  14  -2   81.49   10.30
  -5  14  -2   82.76   10.25
  -5  14  -2  101.21   10.98
  -5  14   2   86.10   10.97
  -5  14   2   78.55    9.28
   5  14  -2   63.84   19.04
  -5  14   3  498.98   34.61
  -5  14  -3  545.30   35.21
  -5  14   3  501.45   35.22
   5  14   3  381.72   51.50
  -5  14   3  481.81   33.38
   5  14  -3  439.06   50.40
  -5  14  -3  539.88   35.50
  -5  14   4  243.00   19.74
  -5  14  -4  243.57   19.78
  -5  14   4  242.06   20.50
   5  14   4  215.48   34.01
  -5  14   4  241.59   18.51
   5  14  -4  253.77   33.09
  -5  14  -4  266.24   20.91
  -5  14   5   31.47    6.72
  -5  14   5   25.60    5.13
  -5  14  -5   17.69    5.47
  -5  14   5   14.87    5.85
   5  14   5   23.90   12.74
  -5  14  -5   32.41    7.21
   5  14  -5   10.83    8.54
  -5  14  -6   30.18    6.93
   5  14   6   22.80   11.50
  -5  14  -6   20.37    5.58
  -5  14   6   35.35    7.49
  -5  14  -7  134.19   13.91
  -5  14   7  137.06   14.44
  -5  14  -7  136.60   12.37
  -5  14   7  143.01   14.15
  -5  14  -8  194.77   16.92
  -5  14   8  180.29   17.02
  -5  14  -8  197.62   15.12
  -5  14   8  179.70   16.41
  -5  14  -9  117.95   12.69
  -5  14   9  152.75   14.14
  -5  14   9  129.04   11.97
   5 -14  10   26.10    3.88
  -5  14 -10   37.56    6.95
  -5  14  10   27.05    6.23
  -5  14 -11   85.82    9.18
  -5  14  11   67.01    8.86
  -5  14 -12  190.86   15.43
  -5  14  12  200.78   16.04
  -5  14  13   13.76    4.17
  -5  14  14   21.17    4.19
  -5  14  15   10.87    2.59
  -5  15   0    1.90    4.20
   5  15   0   -5.23    9.26
  -5  15   0    2.47    3.79
  -5  15   0   10.10    4.53
  -5  15   1  134.12   13.78
  -5  15  -1  139.04   13.83
  -5  15  -1  150.25   13.80
  -5  15   1  143.66   13.07
  -5  15  -1  159.52   14.03
  -5  15   2    6.56    4.39
  -5  15  -2   10.50    4.86
  -5  15   2    6.74    4.15
  -5  15  -2    1.77    4.29
  -5  15  -2    0.89    4.32
  -5  15   2    4.59    4.75
  -5  15   3  152.12   14.00
  -5  15  -3  124.52   13.47
  -5  15  -3  139.44   13.16
  -5  15   3  150.17   14.04
  -5  15   3  150.64   12.78
  -5  15  -3  135.37   13.23
  -5  15   4  683.79   46.34
  -5  15  -4  711.20   46.53
  -5  15   4  723.26   46.65
  -5  15  -4  719.72   45.88
  -5  15   4  683.76   44.63
  -5  15  -4  739.19   46.68
  -5  15   5   81.26   10.97
  -5  15  -5  105.26   10.57
  -5  15  -5  115.04   11.55
  -5  15   6  186.71   17.12
  -5  15  -6  173.13   14.38
  -5  15   6  166.33   15.51
  -5  15  -6  178.01   15.38
  -5  15   7  144.77   14.73
  -5  15  -7  138.65   12.15
  -5  15   7  132.45   13.43
  -5  15  -7  152.42   13.60
  -5  15  -8   27.73    5.86
  -5  15  -8   23.20    4.53
  -5  15   8   21.42    5.67
  -5  15   8   26.11    7.13
  -5  15   9   79.20   10.47
  -5  15  -9  107.18   10.28
  -5  15 -10   63.35    7.60
  -5  15  10   58.88    8.31
  -5  15 -11  111.92    9.76
  -5  15  11   86.57   10.22
  -5  15  12   60.68    7.86
  -5  15 -12   78.03    7.43
  -5  15  13   47.18    6.22
  -5  15 -13   59.64    6.08
  -5  15  14  132.63   10.56
  -5  15 -14  148.50   10.50
  -5  15 -15   62.88    5.28
  -5  16   0   17.83    5.93
  -5  16   0   21.51    5.06
  -5  16   0   23.50    5.50
  -5  16   1    4.68    4.48
  -5  16  -1    8.38    4.45
  -5  16   1    4.11    3.45
  -5  16  -1    9.55    4.28
  -5  16  -1    8.84    4.28
  -5  16   2   58.86    8.46
  -5  16  -2   50.33    8.04
  -5  16   2   59.14    7.34
  -5  16  -2   67.09    8.08
  -5  16   2   57.21    7.61
  -5  16  -2   79.21    8.45
  -5  16   3  299.68   23.06
  -5  16  -3  297.92   22.92
  -5  16   3  270.21   21.99
  -5  16   3  288.52   21.14
  -5  16  -3  329.55   22.44
  -5  16  -3  338.02   22.55
  -5  16   4   12.70    5.46
  -5  16  -4    5.06    3.98
  -5  16  -4    6.65    4.11
  -5  16  -4    7.86    3.82
  -5  16   4   12.10    5.01
  -5  16  -5  147.88   13.14
  -5  16   5  182.94   15.72
  -5  16   5  133.83   13.19
  -5  16  -5  137.16   12.25
  -5  16  -5  138.75   12.69
  -5  16   6   21.44    6.39
  -5  16  -6   13.57    4.34
  -5  16  -6   11.01    4.37
  -5  16  -6   20.66    4.34
  -5  16   6   21.25    5.16
  -5  16   7  142.65   13.84
  -5  16  -7  141.89   11.76
  -5  16  -7  128.32   11.01
  -5  16  -7  127.51   11.61
  -5  16  -8    0.54    2.62
  -5  16  -8    5.44    3.67
  -5  16   8    3.70    4.91
  -5  16  -9  117.67   10.09
  -5  16  -9  135.90   11.15
  -5  16   9  148.76   13.32
  -5  16 -10    8.08    2.48
  -5  16 -10    9.46    3.24
  -5  16  10   10.01    4.94
  -5  16  11  190.95   15.01
  -5  16 -11  178.51   13.25
  -5  16 -12    2.21    2.19
  -5  16  12    3.34    3.45
  -5  16 -13    4.63    1.98
  -5  16  13    3.33    2.69
  -5  17   0   28.77    6.47
  -5  17   0   40.41    5.40
  -5  17   0   39.06    5.97
  -5  17   1  202.54   17.61
  -5  17  -1  223.64   17.59
  -5  17   1  210.68   15.48
  -5  17  -1  205.41   16.35
  -5  17  -1  219.04   15.90
  -5  17  -2   80.34    9.37
  -5  17   2   62.45    8.74
  -5  17  -2   83.30    8.66
  -5  17   2   73.29    8.23
  -5  17  -2   77.73    7.81
  -5  17   3   80.54    9.63
  -5  17  -3   63.72    8.53
  -5  17   3   99.76   10.39
  -5  17  -3   67.61    7.96
  -5  17   3   67.86    8.07
  -5  17  -3   71.48    7.62
  -5  17  -4  547.90   34.62
  -5  17  -4  509.12   33.62
  -5  17   4  491.72   33.88
  -5  17  -4  531.09   33.29
  -5  17  -5  170.66   14.03
  -5  17  -5  170.90   13.49
  -5  17  -5  176.37   13.32
  -5  17  -6   35.46    5.35
  -5  17  -6   30.24    4.60
  -5  17   6   29.89    6.80
  -5  17  -7   48.11    5.87
  -5  17   7   58.73    8.43
  -5  17  -7   52.88    5.85
  -5  17  -8    4.47    2.63
  -5  17  -8    9.37    2.88
  -5  17   8   12.84    4.99
  -5  17  -9   76.86    6.99
  -5  17  -9   96.24    7.77
  -5  17   9  106.03   10.14
  -5  17  10  217.72   16.52
  -5  17 -10  209.26   14.31
  -5  17  11   80.98    7.96
  -5  17 -11   74.10    6.17
  -5  17  12   41.14    4.89
  -5  17 -12   37.65    3.52
  -5  18   0  475.78   32.15
  -5  18   0  508.42   31.39
  -5  18   0  453.22   30.85
  -5  18   1   14.73    4.27
  -5  18   1    9.16    4.23
  -5  18  -1   11.47    4.50
  -5  18  -1   17.99    4.27
  -5  18  -1   13.64    2.68
  -5  18   2   36.83    6.11
  -5  18   2   41.22    6.43
  -5  18  -2   40.50    6.24
  -5  18  -2   34.14    4.22
  -5  18  -3  451.24   28.58
  -5  18   3  417.48   28.70
  -5  18  -3  415.42   26.48
  -5  18  -4  271.51   19.78
  -5  18  -4  266.41   18.36
  -5  18  -5    6.01    2.49
  -5  18  -5    4.48    2.97
  -5  18  -5    8.51    2.53
  -5  18  -6   24.12    3.17
  -5  18  -6   25.57    3.98
  -5  18  -6   23.92    3.29
  -5  18  -7   24.88    3.76
  -5  18   7   34.00    5.95
  -5  18  -7   33.56    3.62
  -5  18  -8  192.03   13.49
  -5  18  -8  207.77   13.46
  -5  18  -9   43.20    4.01
  -5  18   9   66.83    7.14
  -5  18  10   38.17    5.19
  -5  19   0  401.66   27.26
  -5  19   0  423.82   26.49
  -5  19  -1   -0.54    2.79
  -5  19   1    4.52    2.71
  -5  19  -1    2.37    2.44
  -5  19  -2  246.48   17.41
  -5  19   2  241.47   17.15
  -5  19  -2  250.93   16.51
  -5  19  -3    6.34    2.89
  -5  19   3    7.37    3.10
  -5  19  -3    7.70    2.25
  -5  19  -4   25.03    3.86
  -5  19   4   29.76    4.72
  -5  19  -4   18.31    2.75
  -5  19  -5    1.01    1.88
  -5  19   5   -1.01    2.91
  -5  19  -6    6.20    1.97
  -5  19   8   78.71    7.34
  -5  19   9    0.34    1.91
  -5  20   0  304.64   19.05
  -5  20   1   13.29    2.47
  -5  20   2   12.41    2.58
  -5  20   3  128.84    9.43
  -5  20   4  314.82   20.00
  -5  20   5   12.00    2.52
   6   0   0 1188.17   75.30
   6   0   0 1247.50   82.87
   6   0   1    2.30    3.67
   6   0  -1   -0.87    3.45
   6   0  -1   -1.97    5.78
   6   0   1   -2.32    7.11
   6   0  -2   93.48    9.03
   6   0   2   71.93   10.50
   6   0  -2   66.79   12.59
   6   0   3   -2.85    4.18
   6   0  -3   -1.77    4.15
   6   0   3   -2.83    7.50
   6   0  -4 6409.00  380.34
   6   0   4 6787.64  385.59
   6   0  -4 6866.25  386.91
   6   0   4 6434.31  395.38
   6   0  -5   -1.13    3.01
   6   0   5   -1.77    4.13
   6   0  -5    3.33    4.42
   6   0   5   -3.36    8.93
   6   0  -6   76.74   12.00
   6   0   6  107.50   15.28
   6   0  -6   99.63   13.51
   6   0   6  122.55   21.35
   6   0  -7   -2.13    4.98
   6   0   7    4.52    5.29
  -6   0   7   -3.74    5.73
   6   0  -7    1.52    3.55
   6   0   7   -7.67   10.72
  -6   0   8 1498.54   93.94
   6   0  -8 1563.43   93.69
  -6   0   8 1625.35   98.88
   6   0   9   -2.96    8.27
  -6   0   9   -4.75    6.26
  -6   0  10  344.92   29.78
   6   0  10  381.41   38.77
  -6   0  11   11.71    6.24
  -6   0  12 1716.85  106.88
  -6   0  13    1.24    5.90
  -6   0  14  225.87   19.99
  -6   0  15    1.05    5.67
  -6   0  16 1157.76   72.34
  -6   0  17   -0.86    4.72
  -6   0  18  114.68   11.18
  -6   0  19   -2.97    3.56
  -6   0  20  125.08   10.05
  -6   0  21    0.62    1.71
   6  -1   0   64.44    8.62
   6   1   0   43.57    7.16
   6  -1   0   63.90   13.41
   6   1   0   51.55   10.94
   6  -1  -1   76.54    9.17
   6  -1   1   69.57    9.82
   6   1   1   62.14    8.85
   6   1  -1   42.21   10.48
   6   1   1   52.13   11.10
   6  -1   2 1090.43   70.56
   6  -1  -2 1099.94   67.17
   6   1   2 1069.41   69.96
   6   1  -2 1065.47   72.84
   6   1  -3 2635.36  158.25
   6  -1   3 2534.60  161.52
   6  -1  -3 2651.47  155.93
   6   1   3 2828.19  161.77
   6   1  -3 2820.73  163.52
   6  -1   3 2572.47  171.43
   6   1  -4  135.69   14.44
   6  -1   4  155.90   17.14
   6   1   4  149.35   16.25
   6   1  -4  130.82   15.99
   6  -1   4  135.59   22.30
   6   1   4  156.88   22.98
   6   1  -5  666.40   44.72
   6  -1   5  580.06   45.46
   6   1   5  562.82   44.25
   6   1  -5  627.68   44.10
   6  -1   5  546.77   52.24
   6   1   5  596.00   53.33
   6   1  -6  416.97   37.31
   6  -1   6  511.95   39.61
   6   1   6  478.42   37.62
   6   1  -6  451.30   34.49
   6  -1   6  429.78   43.82
   6   1   6  407.77   44.28
   6   1  -7    2.60    6.09
   6   1   7   -2.17    5.43
  -6  -1   7    6.10    4.71
   6   1  -7    2.62    3.28
  -6  -1   8  147.72   16.30
  -6   1   8  162.41   20.95
  -6  -1   9  634.61   47.11
   6  -1   9  774.26   58.53
  -6   1   9  675.36   40.46
  -6  -1  10  351.72   30.06
   6   1 -10  376.28   37.94
   6  -1  10  413.90   41.40
   6   1 -11  581.21   49.73
   6  -1  11  523.58   52.35
  -6  -1  11  564.23   41.20
  -6  -1  12   43.98    8.92
  -6  -1  13   29.69    7.62
  -6  -1  14  344.78   26.82
  -6  -1  15   20.32    6.58
  -6  -1  16   21.40    5.89
  -6  -1  17  536.92   36.13
  -6  -1  18  149.94   13.20
  -6  -1  19   56.86    6.88
  -6  -1  20   51.22    5.54
  -6  -1  21   -0.60    1.77
   6  -2   0 1306.78   82.44
   6   2   0 1306.26   86.74
   6  -2  -1  379.00   28.68
   6  -2   1  394.81   30.33
   6   2  -1  401.05   32.80
   6   2   1  378.60   33.99
   6  -2  -2 1936.13  113.13
   6  -2   2 1779.68  116.07
   6  -2   2 1818.13  126.11
   6   2  -2 1920.03  118.03
   6   2   2 1860.83  121.70
   6   2  -3  527.67   37.49
   6  -2   3  543.48   40.06
   6  -2  -3  517.79   34.85
   6  -2   3  486.25   47.06
   6   2  -3  527.63   39.59
   6   2  -4  600.97   43.06
   6  -2   4  568.01   44.62
   6  -2   4  575.94   52.66
   6   2  -4  612.47   43.49
   6   2  -5  358.01   30.57
   6  -2   5  330.39   30.34
   6  -2   5  297.95   35.21
   6   2  -5  323.65   27.16
   6   2  -6   19.83    8.24
   6  -2   6   16.54    6.98
   6  -2   6   10.36    7.53
   6   2  -6   13.12    4.99
  -6  -2   7  332.97   26.12
  -6   2   7  324.89   26.67
   6   2  -7  236.80   31.53
   6  -2   7  318.45   35.81
  -6   2   7  317.97   21.21
  -6   2   7  374.63   34.84
  -6   2  -8   39.97    6.18
   6   2  -8   22.58   10.26
  -6  -2   8   36.06    9.18
  -6   2   8   34.28    9.25
   6  -2   8   66.22   15.96
  -6   2  -8   65.50    5.56
  -6   2   8   50.06    5.54
  -6   2   8   55.61   13.23
  -6   2  -9  236.10   18.21
  -6  -2   9  221.37   21.81
  -6   2   9  183.37   22.25
   6   2  -9  254.42   29.88
   6  -2   9  307.43   32.76
  -6   2   9  247.66   16.54
  -6   2   9  238.00   28.05
  -6   2 -10  778.48   49.29
  -6  -2  10  712.41   52.79
  -6   2  10  760.19   54.57
   6   2 -10  809.46   63.17
   6  -2  10  880.83   67.77
  -6   2 -11  200.48   17.29
  -6  -2  11  204.19   19.94
  -6   2  11  229.05   21.48
   6   2 -11  205.72   25.78
   6  -2  11  207.54   29.78
   6   2 -12    2.80    6.07
  -6   2 -12    2.84    3.93
  -6  -2  12    7.38    5.65
  -6   2  12    1.40    6.06
   6  -2  12    4.15    8.21
  -6   2  13  192.35   18.58
  -6  -2  13  180.61   17.58
   6   2 -13  217.21   25.46
  -6  -2  14   23.24    7.11
  -6  -2  15  164.10   15.24
  -6  -2  16   16.03    5.64
  -6  -2  17   51.47    7.65
  -6  -2  18  353.03   24.51
  -6  -2  19  122.92   10.50
  -6  -2  20   48.87    5.38
  -6   2  20   48.14    5.60
  -6  -2  21   38.22    3.94
  -6   2  21   33.88    3.92
   6  -3   0   -1.35    3.77
   6   3   0    1.93    4.52
   6  -3  -1   52.54    8.71
   6  -3   1   44.77    8.59
   6   3  -1   53.87   10.74
   6  -3  -2   16.55    4.79
   6  -3   2   16.64    5.97
   6   3  -2   25.29    7.37
   6   3   2   14.15    7.87
   6   3  -3 2301.42  139.40
   6  -3  -3 2347.51  136.11
   6  -3   3 2128.17  141.40
   6  -3   3 2110.39  150.62
   6   3  -3 2338.82  140.53
   6   3  -4    3.64    4.84
   6  -3  -4    1.61    2.48
   6  -3   4    6.33    6.46
   6  -3   4    6.99   11.97
   6   3  -4   12.00    5.14
   6   3  -5  109.05   16.49
   6  -3   5  111.73   17.22
   6   3  -5  115.86   13.70
   6  -3   5  147.82   22.71
  -6   3   5  117.73    9.61
   6   3  -6   17.41    9.71
   6  -3   6   21.41    8.33
  -6  -3   6   15.94    5.75
   6  -3   6   16.89    9.08
  -6   3  -6   28.64    3.94
  -6   3   6   31.74    4.32
  -6   3  -7    3.61    2.86
   6   3  -7    3.31    7.20
  -6  -3   7   17.21    6.09
  -6   3   7   17.10    7.16
   6  -3   7   16.67   10.24
  -6   3  -7   16.56    2.93
  -6   3   7   15.00    3.59
  -6   3   7   29.63   11.30
  -6   3  -8   17.23    4.61
   6   3  -8    3.38    7.37
  -6  -3   8    9.65    6.03
  -6   3   8   11.43    7.69
   6  -3   8   23.17   10.59
  -6   3  -8   20.82    3.28
  -6   3   8   12.80    3.21
  -6   3   8    3.47    8.16
  -6   3  -9  328.48   24.90
  -6  -3   9  320.73   28.33
  -6   3   9  324.31   29.67
   6   3  -9  411.56   39.47
   6  -3   9  315.94   37.37
   6  -3   9  376.97   38.37
  -6   3   9  363.51   22.79
  -6   3   9  264.53   34.76
   6   3 -10    6.12    7.16
  -6   3 -10   10.38    5.07
  -6  -3  10   -1.38    5.46
  -6   3  10    8.25    6.85
   6  -3  10   -3.87   10.25
  -6   3 -11  408.06   30.14
  -6  -3  11  396.26   31.47
  -6   3  11  426.87   33.26
   6   3 -11  480.55   41.60
   6  -3  11  342.94   42.30
   6   3 -12   14.23    7.55
  -6   3 -12    8.00    5.63
  -6  -3  12   -1.17    5.26
  -6   3  12   -1.39    6.27
   6  -3  12    4.10    7.25
   6   3 -13   11.14    7.41
  -6   3 -13   12.22    5.32
  -6  -3  13   13.99    5.89
  -6   3  13    2.53    5.73
   6  -3  13    4.03    7.14
  -6   3 -14    3.72    5.03
   6   3 -14   13.55    6.78
  -6  -3  14   -1.00    4.62
  -6   3  14    5.81    5.14
  -6   3 -15    5.79    5.46
  -6  -3  15   19.45    6.06
  -6   3  15   13.86    5.93
  -6   3 -16   -0.98    4.50
  -6  -3  16    4.23    3.74
  -6   3  16    3.85    3.91
  -6  -3  17  151.99   12.87
  -6   3  17  120.32   12.72
  -6  -3  18    3.78    3.44
  -6   3  18    4.24    4.15
  -6  -3  19  101.19    8.98
  -6   3  19   97.59    9.18
  -6  -3  20    1.12    2.28
  -6   3  20    0.41    2.41
  -6  -3  21   65.28    5.29
  -6   3  21   64.33    5.43
   6   4   0 1058.26   68.65
   6  -4   0  957.27   69.55
  -6   4   0 1088.74   63.08
   6   4   1  569.41   44.30
   6   4  -1  627.13   43.60
   6  -4   1  649.78   47.28
  -6   4  -1  662.69   39.24
   6   4  -2 1779.20  115.41
   6  -4   2 1848.90  122.03
  -6   4  -2 2009.04  112.01
  -6   4   2 1910.72  111.82
   6   4  -3 1138.18   75.56
   6  -4   3  995.51   76.61
  -6   4  -3 1183.44   66.43
  -6   4   3 1069.65   66.23
   6   4  -4  445.20   37.95
   6  -4  -4  420.03   31.54
   6  -4   4  501.33   40.77
   6  -4   4  464.82   44.96
  -6   4  -4  466.39   28.24
  -6   4   4  418.24   28.05
   6   4  -5  298.32   31.27
   6  -4   5  306.52   31.41
   6  -4   5  277.20   33.40
  -6   4   5  276.59   19.17
  -6   4  -5  297.26   18.71
  -6   4   5  248.23   18.58
  -6   4  -6  119.99   11.94
  -6  -4   6  126.30   13.88
   6   4  -6  130.91   22.21
  -6   4   6  114.16   14.46
  -6   4   6  136.31   11.14
   6  -4   6  155.11   23.85
  -6   4  -6  152.09   10.59
  -6   4   6  133.03   10.77
  -6   4   6  119.87   22.29
  -6   4  -7  456.49   31.86
  -6  -4   7  432.66   34.16
  -6   4   7  420.64   35.67
   6   4  -7  431.59   45.19
   6  -4   7  451.09   44.00
  -6   4  -7  534.02   29.78
  -6   4   7  435.56   29.82
  -6   4   7  512.11   49.54
  -6   4   8   12.26    8.88
  -6   4  -8   17.83    5.34
   6   4  -8    6.98    6.94
   6  -4   8    3.62    9.09
  -6  -4   8    9.65    6.50
  -6   4   8   17.18    7.93
   6  -4   8    9.53    7.98
  -6   4  -8   14.64    3.24
  -6   4   8   12.31    3.39
  -6   4  -9  503.24   32.95
  -6  -4   9  402.22   33.95
  -6   4   9  402.65   35.95
   6   4  -9  423.70   43.51
   6  -4   9  398.81   44.89
   6  -4   9  538.90   46.17
  -6   4   9  468.42   29.67
  -6   4   9  508.00   48.31
  -6   4 -10 1400.44   87.39
  -6  -4  10 1323.60   88.20
  -6   4  10 1393.25   91.12
   6   4 -10 1658.75  102.74
   6  -4  10 1455.81  105.54
  -6   4 -11  182.74   17.43
  -6  -4  11  184.07   17.30
  -6   4  11  186.39   19.29
   6   4 -11  142.09   22.50
   6  -4  11  176.26   27.47
   6   4 -12    5.77    6.25
  -6   4 -12    2.59    5.25
  -6  -4  12   -2.18    6.25
  -6   4  12   -1.36    5.88
   6  -4  12   -3.98    7.86
  -6   4 -13  275.05   25.77
  -6  -4  13  342.47   25.07
  -6   4  13  330.61   26.29
   6   4 -13  366.17   35.25
   6  -4  13  293.19   36.47
  -6   4 -14   23.22    7.35
   6   4 -14   41.60   11.03
  -6  -4  14   17.94    5.73
  -6   4  14   27.39    7.58
   6  -4  14    7.26    7.96
  -6  -4  15  203.96   16.20
  -6   4  15  225.65   17.83
  -6   4 -16   14.91    5.74
  -6  -4  16   19.83    5.30
  -6   4  16   17.76    5.57
  -6   4 -17   90.23   10.62
  -6  -4  17  124.24   10.87
  -6   4  17  117.59   11.51
  -6  -4  18  509.66   32.47
  -6   4  18  491.83   32.92
  -6  -4  19  224.12   15.11
  -6   4  19  192.87   15.11
  -6  -4  20   80.94    6.68
  -6   4  20   74.67    6.80
   6   5   0  434.94   35.18
  -6   5   0  468.22   29.16
   6   5   1    4.91    4.58
  -6   5  -1    1.73    2.45
   6   5   2 1356.69   94.31
   6   5  -2 1378.73   92.24
  -6   5  -2 1572.34   86.83
  -6   5   2 1441.21   86.58
   6   5   3  935.62   70.05
   6   5  -3 1061.61   73.16
   6  -5   3 1037.32   75.88
  -6   5  -3 1132.96   62.52
  -6   5   3  969.98   62.09
  -6   5   3 1059.87   62.85
  -6   5  -4  403.43   28.49
   6   5  -4  436.59   39.22
   6  -5   4  400.16   39.91
  -6   5   4  396.14   27.46
  -6   5  -4  476.60   27.44
  -6   5   4  412.80   27.21
  -6   5  -5  271.04   19.76
   6   5  -5  285.31   31.46
   6  -5   5  263.47   31.21
   6  -5   5  196.20   28.97
  -6   5   5  267.07   18.40
  -6   5  -5  252.60   17.56
  -6   5   5  246.75   17.86
  -6   5   5  293.47   36.48
  -6   5  -6 1052.53   68.86
  -6  -5   6 1076.05   71.04
  -6   5   6 1096.11   72.96
   6   5  -6 1084.71   84.82
   6  -5   6 1210.16   84.47
  -6   5   6 1151.52   67.41
  -6   5  -6 1175.15   66.62
  -6   5   6 1063.33   66.87
  -6   5   6 1217.17   92.99
  -6   5  -7  122.17   12.79
   6   5  -7  148.12   24.62
  -6  -5   7  142.76   15.16
   6  -5   7  184.37   24.37
  -6   5  -7  151.01   10.88
  -6   5   7  112.21   10.94
  -6   5   7  152.38   17.46
  -6   5   7  149.96   27.80
  -6   5  -8  369.68   26.48
  -6  -5   8  256.51   26.32
  -6   5   8  268.53   28.65
   6   5  -8  462.65   42.09
   6  -5   8  308.57   37.56
   6  -5   8  353.62   36.05
  -6   5  -8  377.79   22.80
  -6   5   8  338.62   23.46
  -6   5   8  400.98   45.23
  -6   5   9  236.43   32.11
  -6   5  -9  226.30   19.04
  -6  -5   9  173.31   18.72
  -6   5   9  211.12   22.14
   6   5  -9  215.71   27.71
   6  -5   9  204.93   30.07
   6  -5   9  225.28   27.61
  -6   5 -10  747.08   51.21
  -6  -5  10  707.53   50.84
  -6   5  10  766.00   53.95
   6   5 -10  830.32   63.33
   6  -5  10  793.76   66.94
   6  -5  10  859.96   63.59
  -6   5 -11  419.60   33.12
  -6   5  11  497.63   35.50
  -6  -5  11  428.56   32.22
   6   5 -11  496.44   43.94
   6  -5  11  399.89   44.66
  -6   5 -12  163.71   18.65
  -6  -5  12  209.81   17.76
  -6   5  12  217.28   19.76
   6   5 -12  213.42   26.21
   6  -5  12  186.73   27.80
  -6   5 -13    7.06    6.73
   6   5 -13   11.52    8.06
  -6  -5  13    0.95    4.37
  -6   5  13   22.96    7.56
   6  -5  13   -3.65    9.14
  -6   5 -14  491.77   40.50
  -6  -5  14  578.17   38.61
  -6   5  14  647.84   40.83
   6   5 -14  699.05   52.38
   6  -5  14  489.99   50.16
  -6   5 -15   15.12    6.42
  -6  -5  15    9.73    4.67
  -6   5  15    2.01    4.64
  -6   5 -16  117.75   13.44
  -6  -5  16  129.15   11.73
  -6   5  16  139.66   12.81
  -6   5 -17  375.74   28.87
  -6  -5  17  439.61   28.26
  -6   5  17  441.90   29.07
  -6  -5  18  347.91   20.85
  -6   5  18  305.76   21.02
  -6  -5  19    0.77    2.10
  -6   5  19    0.90    2.40
  -6  -5  20   76.46    5.99
  -6   5  20   71.36    6.19
   6   6   0   72.93   11.96
  -6   6   0   77.76    7.22
  -6   6   0   73.27    7.85
   6   6  -1  448.34   36.14
  -6   6  -1  444.53   28.54
   6   6   1  423.40   36.25
  -6   6   1  456.46   29.31
  -6   6  -1  438.75   29.41
  -6   6  -2   72.08    8.15
   6   6  -2   78.62   12.30
   6   6   2   73.33   12.70
  -6   6  -2   90.55    7.69
  -6   6   2   76.97    7.36
  -6   6   2   75.55    7.85
  -6   6  -3  166.47   13.75
   6   6   3  141.60   18.63
   6   6  -3  130.71   20.28
   6   6  -3  124.52   16.91
  -6   6  -3  187.69   12.65
  -6   6   3  145.08   12.14
  -6   6   3  171.96   12.93
  -6   6  -4 2404.99  138.27
   6   6   4 2401.44  148.04
   6   6  -4 2297.96  152.87
   6  -6   4 2101.02  153.83
  -6   6   4 2289.60  136.77
  -6   6  -4 2498.55  136.48
  -6   6   4 2212.53  136.29
  -6   6   4 2412.75  163.84
  -6   6  -5  343.20   23.95
  -6  -6   5  318.05   25.17
  -6   6   5  322.14   27.13
   6   6  -5  312.27   35.55
   6  -6   5  309.75   36.94
   6  -6   5  289.78   34.48
  -6   6   5  332.11   22.26
  -6   6  -5  330.90   21.53
  -6   6   5  295.49   21.57
  -6   6   5  284.50   42.50
  -6   6  -6  563.99   37.97
  -6  -6   6  509.09   39.13
  -6   6   6  509.28   41.58
   6   6  -6  482.44   50.89
   6  -6   6  564.49   50.26
  -6   6  -6  619.00   35.50
  -6   6   6  554.13   35.91
  -6   6   6  529.29   60.78
  -6   6   7  143.59   30.55
  -6   6  -7  181.03   15.62
  -6  -6   7  135.14   16.05
  -6   6   7  181.43   20.16
   6   6  -7  213.28   28.82
   6  -6   7  131.00   21.60
  -6   6  -7  176.87   12.58
  -6   6   7  137.52   12.83
  -6   6   8  196.94   32.80
  -6   6  -8  168.84   16.54
  -6  -6   8  168.75   17.46
  -6   6   8  172.47   20.55
   6   6  -8  208.89   27.93
   6  -6   8  203.76   28.72
   6  -6   8  173.56   23.73
  -6   6  -9  102.98   12.87
  -6  -6   9  106.82   13.03
   6   6  -9  127.26   21.27
  -6   6   9  106.02   15.67
   6  -6   9  126.52   23.27
   6  -6   9  132.39   19.80
  -6   6 -10   50.22    9.33
   6   6 -10   53.53   13.60
  -6  -6  10   41.40    8.00
  -6   6  10   37.95   10.03
   6  -6  10   58.27   15.20
  -6   6 -11  190.96   19.14
  -6  -6  11  199.48   17.53
  -6   6  11  200.31   19.97
   6   6 -11  257.01   29.09
   6  -6  11  192.91   28.13
  -6   6 -12  529.24   40.52
  -6  -6  12  566.34   38.10
  -6   6  12  605.96   40.89
   6   6 -12  557.84   49.31
   6  -6  12  535.87   51.69
  -6  -6  13   94.61   10.14
  -6   6 -13   73.11   11.96
   6   6 -13   66.74   14.73
  -6   6  13   75.98   10.90
   6  -6  13   58.47   15.54
  -6   6 -14  506.88   37.47
  -6  -6  14  506.35   34.17
  -6   6  14  513.15   35.99
  -6  -6  15  102.35   10.31
  -6   6  15  110.52   11.72
  -6   6 -15   96.70   12.28
  -6   6 -16  562.02   37.11
  -6  -6  16  542.89   34.56
  -6   6  16  489.78   35.38
  -6   6 -17   98.23   10.35
  -6  -6  17   92.78    8.95
  -6   6  17  101.25    9.94
  -6   6 -18    1.08    2.83
  -6  -6  18    3.39    2.54
  -6   6  18   -2.11    2.83
  -6  -6  19   37.83    3.83
  -6   6 -19   28.62    3.78
  -6   6  19   27.79    3.95
   6   7   0  169.48   20.51
  -6   7   0  161.26   12.79
  -6   7   0  176.66   13.84
   6   7  -1   43.96   10.46
  -6   7  -1   53.36    7.08
   6   7   1   53.40   11.79
  -6   7  -1   73.83    6.95
  -6   7   1   57.41    7.00
  -6   7   2    4.29    3.18
   6   7  -2    2.22    4.41
  -6   7  -2    6.41    3.47
   6   7   2   11.41    6.39
  -6   7  -2    6.23    3.10
  -6   7   2    6.81    3.20
  -6   7  -3  642.17   42.32
  -6   7   3  656.11   41.16
   6   7   3  600.64   50.48
   6   7  -3  637.65   54.29
   6   7  -3  603.77   50.44
  -6   7  -3  743.24   41.31
  -6   7   3  642.42   40.93
  -6   7   3  634.17   41.33
  -6   7   3  587.76   62.78
   6   7   4   -2.46    5.77
  -6   7  -4    3.29    3.50
   6   7  -4    3.45    8.07
  -6   7   4    4.06    5.09
   6   7  -4   11.33    6.65
  -6   7  -4   10.16    3.39
  -6   7   4    7.01    3.03
  -6   7   4   11.44   15.18
  -6   7  -5  147.54   14.32
   6   7   5  115.68   19.35
  -6   7   5  165.79   18.50
   6   7  -5  153.61   24.94
   6  -7   5  172.67   28.40
   6  -7   5  210.01   26.51
  -6   7  -5  174.71   12.79
  -6   7   5  149.27   12.81
  -6   7   5  135.18   31.42
  -6   7   6   20.38   17.01
  -6   7  -6   11.85    5.13
   6   7  -6    3.98    7.89
  -6   7   6   11.29    8.67
   6  -7   6   12.41    9.12
  -6   7   7  203.61   36.68
  -6   7  -7  136.88   14.36
  -6  -7   7  119.92   14.18
   6   7  -7  192.95   27.39
  -6   7   7  137.29   18.76
   6  -7   7  167.33   23.20
  -6   7   8    5.85   11.56
  -6   7  -8    1.19    5.15
   6   7  -8   10.84    8.46
   6  -7   8    4.02    7.94
  -6  -7   8    4.34    4.61
  -6   7   8    9.33    7.74
   6  -7   8    5.83    6.32
  -6   7  -9  263.37   23.52
  -6   7   9  302.35   22.29
  -6  -7   9  250.33   21.87
  -6   7   9  244.86   25.54
   6   7  -9  279.41   32.96
   6  -7   9  283.84   34.97
   6  -7   9  272.74   30.57
  -6   7  -9  312.12   20.47
  -6   7 -10    5.34    5.79
   6   7 -10    3.17    7.42
  -6  -7  10    2.77    4.25
  -6   7  10    7.36    6.52
   6  -7  10    3.75    8.13
  -6   7 -11  249.93   24.21
  -6  -7  11  302.42   22.22
  -6   7  11  298.33   25.05
   6   7 -11  310.27   33.37
   6  -7  11  332.23   36.39
  -6   7 -12   27.08    8.00
   6   7 -12    8.89    7.47
  -6  -7  12   18.55    4.92
  -6   7  12   12.07    6.56
   6  -7  12   13.73    8.64
  -6   7 -13   14.27    6.41
   6   7 -13    8.69    7.71
  -6  -7  13   10.55    4.30
  -6   7  13    8.78    5.85
   6  -7  13    3.23    8.10
  -6   7 -14   20.40    6.93
  -6  -7  14   22.27    5.25
  -6   7  14   29.81    6.94
  -6   7 -15   -1.06    4.98
  -6  -7  15   -1.25    3.35
  -6   7  15   -1.75    4.31
  -6  -7  16   31.32    4.70
  -6   7  16   30.69    5.85
  -6   7 -17  187.85   15.91
  -6  -7  17  211.17   14.59
  -6   7  17  207.61   15.51
  -6   7 -18   13.45    3.58
  -6  -7  18   15.23    2.79
  -6   7  18   12.03    2.97
  -6   7 -19    0.91    1.75
   6   8   0  564.73   47.68
  -6   8   0  575.36   35.79
  -6   8   0  500.98   51.92
  -6   8   0  545.23   36.26
   6   8  -1   79.47   15.81
   6   8   1   82.70   15.43
  -6   8  -1   93.15    8.89
  -6   8  -1   97.25    9.72
  -6   8   1   73.76   19.49
  -6   8   2  139.14   12.18
   6   8  -2  143.54   21.10
   6   8   2  120.55   19.55
  -6   8  -2  169.16   12.69
  -6   8   2  152.23   12.48
  -6   8  -2  157.27   13.51
  -6   8   3   48.33    6.48
  -6   8  -3   54.41    7.65
   6   8   3   48.91   11.91
   6   8  -3   60.27   13.53
  -6   8  -3   57.23    6.94
  -6   8  -4  317.24   22.71
   6   8   4  356.79   33.52
   6   8  -4  272.61   34.82
   6   8  -4  247.78   30.25
  -6   8   4  196.12   39.58
  -6   8   5  240.59   42.31
  -6   8  -5  175.70   16.38
   6   8   5  174.88   24.08
   6   8  -5  217.19   30.84
  -6   8   5  170.08   20.67
  -6   8   5  191.81   14.90
  -6   8   6  216.33   40.98
  -6   8  -6  174.53   16.28
   6   8  -6  127.25   24.88
  -6   8   6  167.56   20.65
   6  -8   6  165.51   23.40
  -6   8   6  171.50   13.77
  -6   8  -7   40.95    9.00
   6   8  -7   66.13   17.53
   6  -8   7   73.49   18.72
  -6   8   7   71.88   13.57
   6  -8   7   70.53   15.09
  -6   8  -8   55.21    7.27
  -6   8   8   72.38    9.65
  -6   8  -8   57.81    9.98
   6   8  -8   61.30   15.31
  -6   8   8   55.57   11.48
   6  -8   8   55.12   16.66
   6  -8   8   51.15   12.49
  -6   8  -8   46.29   13.49
  -6   8  -9   39.22    6.05
  -6   8   9   44.89    8.11
  -6   8  -9   17.23    7.07
   6   8  -9   33.50   10.83
  -6   8   9   18.89    7.49
   6  -8   9   56.58   15.75
  -6   8 -10  329.07   28.08
  -6   8  10  374.59   24.69
  -6   8  10  293.58   27.11
   6   8 -10  379.26   37.87
   6  -8  10  395.32   40.49
  -6   8 -11   33.43    8.62
   6   8 -11   24.27   10.19
  -6   8  11   24.61    7.09
   6  -8  11   30.84   12.25
  -6   8  11   35.12    5.56
  -6   8 -12    1.28    5.44
   6   8 -12   -2.94    5.82
  -6  -8  12    2.01    3.30
  -6   8  12   -1.07    4.65
   6  -8  12    6.48    6.41
  -6   8 -13   72.80   10.78
  -6  -8  13   58.00    7.28
  -6   8  13   63.42    9.09
  -6  -8  14   59.26    6.87
  -6   8 -14   62.73    9.52
  -6   8  14   61.60    8.45
  -6   8 -15   48.91    8.19
  -6  -8  15   44.42    5.53
  -6   8  15   46.90    6.84
  -6   8 -16   10.23    4.36
  -6   8  16    5.27    3.34
  -6   8  17   44.85    5.16
  -6   8 -17   44.40    6.26
  -6   8 -18   93.35    8.26
  -6   8 -19   15.12    2.64
  -6   9   0  103.72    9.78
  -6   9   0   84.60   20.96
  -6   9   1  244.36   17.78
   6   9  -1  241.51   30.24
   6   9   1  212.76   28.41
  -6   9  -1  216.52   31.06
  -6   9   1  244.09   35.89
  -6   9   2    9.30    3.80
  -6   9  -2   14.88    4.71
   6   9  -2    6.99    7.59
   6   9   2    3.17    5.64
  -6   9  -2   23.11   11.31
  -6   9   2    5.71   12.38
  -6   9  -3  193.54   16.69
  -6   9   3  200.24   15.79
   6   9   3  211.97   26.86
  -6   9   3  199.17   15.69
   6   9  -3  166.01   26.13
  -6   9  -3  234.26   30.45
  -6   9   4   24.01    4.85
   6   9  -4    6.95    7.58
  -6   9   4   10.34    4.23
  -6   9  -4   10.58    4.81
   6   9   4   35.04   10.95
  -6   9  -4   18.22   11.20
  -6   9   5   65.57   25.32
  -6   9   5   61.05    7.45
   6   9   5   48.32   12.84
  -6   9  -5   52.40    8.51
   6   9  -5   76.94   18.80
  -6   9  -5   54.15   14.99
  -6   9   6  139.63   35.36
  -6   9  -6  103.98   12.78
  -6   9   6  113.74   12.01
   6   9   6  114.42   19.69
   6   9  -6  108.05   22.57
   6  -9   6  130.47   20.45
  -6   9   6  102.43   10.07
  -6   9  -6   78.72   18.63
  -6   9  -7  370.39   30.77
  -6   9  -7  418.62   28.51
  -6   9   7  423.29   31.11
   6   9  -7  458.90   45.40
   6  -9   7  415.07   44.63
   6  -9   7  427.13   40.11
  -6   9  -7  416.77   42.84
  -6   9  -8    5.42    4.12
  -6   9   8    9.85    6.16
  -6   9  -8    1.30    5.65
   6   9  -8   10.74    9.51
   6  -9   8    3.81    7.53
  -6   9   9    5.49    3.74
  -6   9  -9   -0.77    3.26
  -6   9   9   13.82    6.20
  -6   9  -9    6.71    6.16
   6   9  -9   -3.32    8.31
   6  -9   9    7.25    8.49
  -6   9  10   80.76    8.99
  -6   9 -10   63.68   10.87
   6   9 -10   46.90   13.30
  -6   9  10   73.45    9.77
   6  -9  10   82.25   17.35
  -6   9  11  151.57   13.07
  -6   9 -11  158.40   16.27
  -6   9  11  124.18   13.56
   6   9 -11  155.40   22.23
   6  -9  11  165.39   23.35
  -6   9 -12    5.96    5.88
  -6   9  12   10.21    4.47
  -6   9  12    6.74    3.65
  -6   9 -13  293.72   22.65
  -6   9  13  256.75   20.46
  -6   9 -14   23.02    5.98
  -6   9  14    9.06    3.69
  -6   9 -15   19.71    5.45
  -6   9 -16   20.36    4.75
  -6   9 -17   17.02    3.88
  -6   9 -18   14.79    3.11
  -6  10   0 1539.73   87.53
   6  10   0 1383.29  106.82
  -6  10   0 1385.36   87.83
  -6  10   0 1379.06  111.86
  -6  10   1  110.13   26.44
  -6  10   1  111.30   10.45
  -6  10  -1  101.07   10.00
   6  10  -1  119.37   22.34
  -6  10   1   97.19   10.46
   6  10   1  100.83   21.42
  -6  10  -1  120.38   24.26
  -6  10   2  179.32   35.10
  -6  10   2  170.11   14.31
  -6  10  -2  176.45   14.10
   6  10  -2  158.66   26.63
   6  10   2  165.66   25.92
  -6  10   2  167.63   14.41
  -6  10  -2  210.93   30.68
  -6  10   3  262.41   19.61
   6  10   3  306.08   34.38
  -6  10   3  278.48   19.83
   6  10  -3  169.02   29.20
  -6  10  -3  216.40   32.55
  -6  10  -4  105.90   11.81
  -6  10   4   93.31   10.26
   6  10  -4   78.70   18.32
  -6  10  -4  119.06   11.03
  -6  10   4   97.00   11.04
   6  10   4  105.65   19.90
  -6  10   4   96.15    9.84
  -6  10  -4  112.10   22.16
  -6  10   5   33.19   19.57
  -6  10   5   35.02    6.20
   6  10   5   57.94   14.88
  -6  10  -5   40.58    7.06
  -6  10   5   57.14    8.86
  -6  10  -5   45.69    8.43
  -6  10  -5   57.19   16.74
  -6  10   6    2.85    3.21
   6  10   6    7.21    9.02
  -6  10  -6   -0.83    4.13
  -6  10   6   10.44    6.41
  -6  10  -6   -2.40    5.19
   6  10  -6    8.27    8.96
   6 -10   6   -5.99    6.49
  -6  10  -6    4.00    9.35
  -6  10  -7  151.38   16.42
  -6  10   7  155.22   16.93
  -6  10  -7  146.37   13.90
   6  10  -7  168.12   26.34
   6 -10   7  200.02   27.98
  -6  10  -8 1119.29   73.83
  -6  10  -8 1117.43   70.61
  -6  10   8 1181.46   74.24
   6  10  -8 1199.06   87.92
   6 -10   8 1200.07   88.90
  -6  10   9   77.12    9.30
  -6  10   9   68.06   10.33
  -6  10  -9   75.02    8.77
  -6  10  -9   73.45   11.76
   6  10  -9   52.29   14.17
   6 -10   9   93.45   18.32
  -6  10 -10  696.12   47.55
  -6  10  10  695.11   44.67
   6  10 -10  675.76   57.47
   6 -10  10  677.46   58.50
  -6  10 -11   31.98    8.17
  -6  10  11   53.76    7.13
  -6  10 -12  197.36   17.56
  -6  10  12  182.26   15.10
  -6  10 -13   99.95   10.94
  -6  10  13   76.43    8.50
  -6  10 -14   91.07   10.21
  -6  10 -15   47.48    6.85
  -6  10 -16   41.62    5.81
  -6  10 -17   16.48    3.49
  -6  10 -18   97.78    7.65
  -6  11   0  352.81   25.46
  -6  11   0  384.56   26.80
   6  11   0  337.85   42.26
  -6  11   0  362.71   26.20
  -6  11   0  355.38   45.80
  -6  11  -1  204.79   33.67
  -6  11   1  245.94   39.17
  -6  11   1  218.75   17.99
  -6  11  -1  237.47   18.19
   6  11  -1  181.00   31.25
  -6  11  -1  260.63   19.48
  -6  11   1  241.16   18.61
   6  11   1  173.53   30.47
  -6  11  -1  255.88   19.29
  -6  11   2 1133.26   67.32
  -6  11  -2 1055.68   66.70
  -6  11   2 1040.25   67.75
  -6  11  -2 1158.88   68.29
   6  11   2 1132.95   89.70
  -6  11   2 1132.25   67.33
  -6  11  -2 1064.75   89.92
  -6  11  -2 1053.88   67.95
  -6  11   2 1262.79  102.34
  -6  11  -3    4.64   10.06
  -6  11   3   -6.92   12.24
  -6  11   3    1.62    3.58
  -6  11  -3    4.48    3.68
  -6  11   3    3.06    3.83
  -6  11  -3    4.47    4.34
  -6  11   3    6.75    4.91
   6  11   3    4.27    8.44
   6  11  -3    4.51    9.76
  -6  11   4  413.62   27.26
   6  11   4  331.88   40.66
  -6  11  -4  389.60   27.41
  -6  11   4  354.12   27.91
  -6  11   4  401.44   26.53
  -6  11  -4  351.33   43.58
  -6  11  -5   13.12   10.95
  -6  11   5   10.28    4.14
   6  11   5   16.21   10.76
  -6  11  -5    7.21    5.31
  -6  11   5    6.86    6.01
   6  11   6  949.24   81.94
  -6  11  -6 1033.82   65.59
  -6  11   6 1079.54   68.44
   6 -11   6 1120.81   79.57
  -6  11   6 1041.38   64.49
  -6  11  -6 1052.44   85.11
  -6  11  -7  818.15   55.16
  -6  11  -7  793.92   52.31
  -6  11   7  810.21   55.49
   6  11  -7  885.52   70.24
   6 -11   7  904.92   70.10
  -6  11  -8  331.86   26.79
  -6  11  -8  315.26   23.82
  -6  11   8  349.13   27.15
   6  11  -8  282.14   34.64
   6 -11   8  346.52   37.08
  -6  11   9    4.30    4.63
  -6  11  -9    3.66    3.66
  -6  11   9   -4.15    4.77
  -6  11  -9    4.98    5.82
   6  11  -9    3.15    6.23
   6 -11   9   13.11    9.17
  -6  11 -10  725.87   48.35
  -6  11  10  699.43   45.77
  -6  11 -11   68.69    9.71
  -6  11  11   64.21    8.17
  -6  11 -12  270.33   22.09
  -6  11  12  293.56   20.78
  -6  11 -13  207.28   16.91
  -6  11  13  194.03   15.22
  -6  11 -14  385.93   26.67
  -6  11 -15  157.05   12.90
  -6  11 -16  134.24   10.73
  -6  11 -17   90.24    7.55
  -6  12   0    5.28   11.47
   6  12   0    5.23    9.29
  -6  12   0   12.91    4.41
  -6  12   0   16.61    5.02
  -6  12   0   20.61    6.37
  -6  12   1  575.27   37.04
  -6  12  -1  521.64   36.53
  -6  12  -1  554.68   37.99
   6  12   1  505.97   56.90
   6  12  -1  542.58   59.27
  -6  12   1  560.71   37.12
  -6  12  -1  547.75   37.61
  -6  12  -1  598.62   59.66
  -6  12   1  649.18   63.82
  -6  12   2  603.52   37.15
  -6  12  -2  516.23   36.20
  -6  12  -2  514.50   37.44
  -6  12   2  523.65   37.87
   6  12   2  555.81   57.78
   6  12  -2  481.07   55.34
  -6  12   2  561.70   36.69
  -6  12  -2  569.26   37.83
  -6  12  -2  515.21   56.26
  -6  12   2  692.35   68.20
  -6  12  -3  296.34   39.68
  -6  12   3  299.16   23.70
  -6  12  -3  315.42   23.72
   6  12   3  328.21   42.03
  -6  12  -3  371.36   25.53
  -6  12   3  328.98   25.33
   6  12  -3  238.82   37.21
  -6  12   3  346.42   24.04
  -6  12  -3  349.49   25.62
  -6  12   4  493.80   33.99
  -6  12  -4  443.21   33.31
   6  12   4  478.33   52.52
  -6  12  -4  477.52   34.50
  -6  12   4  497.50   35.73
  -6  12   4  554.66   33.88
  -6  12  -4  507.85   52.88
  -6  12  -4  549.26   36.14
   6  12   5  554.19   59.36
  -6  12  -5  634.08   43.35
  -6  12   5  729.48   45.98
  -6  12   5  654.17   42.18
  -6  12  -5  636.06   61.85
   6  12   6  840.28   78.55
  -6  12  -6  984.11   62.28
  -6  12   6 1056.44   65.12
   6 -12   6  955.67   77.64
  -6  12  -7  444.09   31.65
  -6  12   7  461.70   34.43
   6 -12   7  524.13   47.35
  -6  12   8   28.71    6.57
  -6  12  -8   30.22    6.19
  -6  12   8   41.78    8.42
   6 -12   8   42.36   12.03
  -6  12  -9  406.65   29.04
  -6  12   9  369.50   27.00
  -6  12   9  358.48   27.08
  -6  12 -10   18.72    6.21
  -6  12  10   21.94    5.73
  -6  12 -11  384.26   27.25
  -6  12  11  351.90   25.59
  -6  12 -12   33.68    6.32
  -6  12  12   32.09    5.76
  -6  12 -13  189.45   14.76
  -6  12  13  160.47   13.37
  -6  12 -14  714.33   44.74
  -6  12 -15  152.99   11.89
  -6  12 -16   98.00    8.08
  -6  12 -17  185.65   12.32
   6  13   0   32.62   14.67
  -6  13   0   47.10    7.25
  -6  13   0   49.91    7.71
  -6  13   0   49.10    7.77
  -6  13   1  263.67   20.33
  -6  13  -1  247.70   20.07
   6  13  -1  234.49   36.05
  -6  13  -1  254.97   21.02
   6  13   1  274.90   39.25
  -6  13   1  264.01   20.40
  -6  13  -1  268.55   20.90
  -6  13   2    3.47    3.77
  -6  13  -2    5.97    3.78
   6  13  -2   14.54   10.50
  -6  13   2    4.91    4.23
  -6  13  -2    7.83    5.27
  -6  13  -2    1.01    4.83
  -6  13   2    2.08    4.87
   6  13   2    5.42   10.72
  -6  13   3   27.20    6.01
  -6  13  -3   22.12    5.54
  -6  13   3   29.05    5.89
  -6  13  -3   26.65    6.27
  -6  13  -3   30.82    6.53
  -6  13   3   35.12    7.51
   6  13  -3   21.94   11.09
   6  13   3   21.02   13.24
  -6  13   4   33.43    6.62
  -6  13  -4   48.04    7.21
  -6  13   4   49.85    7.06
  -6  13  -4   62.07    8.97
  -6  13  -4   48.16    7.88
  -6  13   4   44.11    8.52
   6  13   4   55.53   17.49
  -6  13  -5    7.41    4.01
  -6  13   5    7.29    3.94
   6  13   5   -4.80    8.50
  -6  13  -5    7.72    5.26
  -6  13  -5    7.38    5.24
  -6  13   5   11.52    6.53
  -6  13  -6    0.79    3.41
  -6  13  -6    3.34    5.03
  -6  13  -6   -0.86    4.90
  -6  13   6    1.18    5.71
  -6  13  -7  496.72   35.72
  -6  13   7  627.96   39.38
  -6  13   8   30.64    6.97
  -6  13  -8   22.44    4.98
  -6  13   8   24.52    6.64
  -6  13   9   -1.48    4.33
  -6  13   9    0.86    4.51
  -6  13  10    9.49    4.72
  -6  13  11   22.15    5.21
  -6  13 -12    3.43    3.49
  -6  13  12    5.00    3.42
  -6  13 -13  192.23   14.79
  -6  13  13  194.21   14.43
  -6  13 -14   -0.48    2.66
  -6  13 -15   81.12    7.13
  -6  13 -16   17.21    2.67
  -6  14   0  528.13   34.57
  -6  14   0  438.98   34.22
  -6  14   0  538.03   34.63
  -6  14   1  202.20   16.84
  -6  14  -1  196.68   16.83
  -6  14  -1  184.13   17.12
  -6  14   1  210.48   16.75
  -6  14  -1  194.59   16.88
  -6  14   2   31.14    6.23
  -6  14  -2   21.03    5.53
  -6  14   2   29.52    5.93
  -6  14  -2   27.20    6.34
  -6  14  -2   39.84    7.25
  -6  14   2   17.87    6.08
  -6  14   3  100.21   10.95
  -6  14  -3  102.35   10.98
  -6  14  -3  120.94   11.83
  -6  14   3   95.31   11.39
  -6  14   3   97.40   10.27
  -6  14  -3  108.36   11.82
  -6  14  -4   12.48    4.47
  -6  14   4   13.06    4.43
  -6  14  -4   18.68    5.98
  -6  14  -4   31.62    6.01
  -6  14   4   23.49    5.73
  -6  14  -5  104.26   11.39
  -6  14   5  113.74   13.07
  -6  14  -5  121.17   12.89
  -6  14  -6  256.72   20.85
  -6  14  -6  282.50   21.45
  -6  14   6  330.72   23.67
  -6  14  -6  313.77   23.03
  -6  14   7  174.45   15.19
  -6  14  -7  130.32   12.41
  -6  14   7  157.45   14.83
  -6  14  -7  147.42   14.14
  -6  14   8  189.19   17.21
  -6  14  -8  223.90   15.77
  -6  14   8  198.67   16.90
  -6  14  -8  206.36   17.47
  -6  14  -9   66.41    8.33
  -6  14   9   48.09    7.84
  -6  14  10   30.76    6.15
  -6  14  11  142.00   12.38
  -6  14  12   24.09    4.77
  -6  14  13   48.45    5.52
  -6  14 -15   56.91    5.02
  -6  15   0  159.17   14.58
  -6  15   0  138.39   14.10
  -6  15   0  189.11   14.75
  -6  15   1  432.67   32.39
  -6  15  -1  479.71   32.77
  -6  15  -1  475.40   32.89
  -6  15   1  495.16   32.30
  -6  15  -1  490.57   32.68
  -6  15   2  215.27   18.72
  -6  15  -2  247.76   19.14
  -6  15  -2  248.67   19.18
  -6  15   2  252.14   19.34
  -6  15   2  215.61   17.91
  -6  15  -2  252.81   19.16
  -6  15   3   10.44    4.89
  -6  15  -3    7.44    4.29
  -6  15   3   10.46    4.30
  -6  15  -3   12.73    4.83
  -6  15  -3    6.72    4.48
  -6  15   3    4.41    4.51
  -6  15  -4   49.76    7.53
  -6  15  -4   71.77    8.99
  -6  15  -4   61.63    8.12
  -6  15   4   63.42    8.48
  -6  15  -5   71.38    8.44
  -6  15  -5   73.68    9.20
  -6  15  -5   73.48    8.68
  -6  15   5   84.64    9.81
  -6  15  -6  182.74   16.06
  -6  15   6  234.00   18.83
  -6  15  -6  236.86   17.00
  -6  15   6  226.01   17.97
  -6  15  -6  235.84   17.81
  -6  15  -7  503.10   35.71
  -6  15   7  592.20   38.82
  -6  15  -7  578.02   36.28
  -6  15   7  596.79   37.84
  -6  15  -7  624.14   37.81
  -6  15  -8   58.47    7.22
  -6  15  -8   39.21    5.14
  -6  15   8   50.22    6.60
  -6  15   8   33.98    7.33
  -6  15   9  103.12   10.95
  -6  15  -9  125.06   10.77
  -6  15  10  170.84   13.87
  -6  15 -10  155.90   12.78
  -6  15 -11   11.07    3.50
  -6  15  11   12.95    4.02
  -6  15  12   47.00    5.84
  -6  15 -12   57.09    5.77
  -6  15  13  370.37   23.26
  -6  16   0 1324.47   82.56
  -6  16   0 1334.32   82.04
  -6  16   0 1396.42   81.68
  -6  16   1    0.84    3.80
  -6  16  -1   -0.82    3.69
  -6  16   1    0.65    3.45
  -6  16  -1    0.69    3.39
  -6  16  -1    9.80    3.83
  -6  16   2   20.91    5.52
  -6  16  -2   27.52    5.74
  -6  16   2   17.35    4.45
  -6  16  -2   23.52    5.11
  -6  16  -2   23.58    5.23
  -6  16   2   17.90    5.00
  -6  16  -3   -2.21    3.45
  -6  16  -3    9.61    4.03
  -6  16  -3   -0.71    3.37
  -6  16   3    4.42    3.91
  -6  16  -4  147.86   13.24
  -6  16  -4  151.18   13.22
  -6  16   4  149.69   13.58
  -6  16  -4  178.20   13.82
  -6  16   5   -0.91    4.62
  -6  16  -5    2.40    2.91
  -6  16  -5    4.51    3.42
  -6  16  -5    3.64    3.09
  -6  16   5    4.30    3.86
  -6  16   6   69.17    9.12
  -6  16  -6   57.84    6.68
  -6  16  -6   77.07    7.31
  -6  16   6   51.82    7.21
  -6  16  -6   67.07    7.49
  -6  16  -7   -2.26    2.96
  -6  16  -7    0.45    2.57
  -6  16   7    3.30    4.62
  -6  16   8 1188.94   69.55
  -6  16  -8 1088.59   67.53
  -6  16  -9   10.59    3.24
  -6  16   9    4.10    4.12
  -6  16  10   96.87    9.36
  -6  16 -10   95.72    8.07
  -6  16 -11    0.34    1.93
  -6  16  11    1.45    2.74
  -6  16  12  254.03   17.82
  -6  16 -12  291.07   17.52
  -6  17   0   60.86    8.11
  -6  17   0   73.07    8.06
  -6  17   0   82.05    7.60
  -6  17  -1  341.43   24.59
  -6  17  -1  341.09   24.05
  -6  17   1  352.97   23.29
  -6  17  -1  373.06   23.61
  -6  17  -2  123.71   12.21
  -6  17  -2  163.84   12.65
  -6  17   2  166.03   12.69
  -6  17  -2  145.34   11.69
  -6  17  -3    6.64    3.25
  -6  17  -3    8.43    3.05
  -6  17  -3   11.61    3.63
  -6  17   3   12.64    3.88
  -6  17   4   19.78    5.60
  -6  17  -4   20.79    4.34
  -6  17  -4   24.38    4.15
  -6  17  -4   18.41    4.05
  -6  17   4   23.48    4.69
  -6  17  -5   17.21    3.69
  -6  17  -5   17.68    3.63
  -6  17  -5   20.93    4.11
  -6  17   5   20.28    4.55
  -6  17   5   17.39    5.20
  -6  17   6  233.54   17.19
  -6  17  -6  191.34   14.35
  -6  17  -6  224.85   14.99
  -6  17   7  638.91   40.24
  -6  17  -7  616.31   38.09
  -6  17  -8    4.16    2.20
  -6  17   8   14.63    4.44
  -6  17  -9   24.02    3.42
  -6  17   9   44.18    5.66
  -6  17  10  134.98   11.02
  -6  17 -10  140.57    9.60
  -6  18   0  194.51   13.99
  -6  18   0  175.27   13.50
  -6  18   1  142.40   10.88
  -6  18  -1  139.90   10.45
  -6  18  -1  108.87    9.95
  -6  18  -1  113.67    8.86
  -6  18  -2  192.53   15.04
  -6  18  -2  202.54   13.93
  -6  18  -3   60.47    6.40
  -6  18  -3   70.50    5.89
  -6  18  -4   44.34    4.80
  -6  18  -4   41.64    4.27
  -6  18  -5   97.33    8.31
  -6  18  -5  119.49    8.75
  -6  18  -5  119.30    8.53
  -6  18  -6  420.28   28.07
  -6  18  -6  481.88   28.40
  -6  18  -7   69.18    5.61
  -6  18   7   88.10    7.97
  -6  18   8   72.80    7.23
  -6  18   9   68.21    6.40
  -6  19   0    2.77    2.23
  -6  19   1  299.11   19.01
  -6  19  -1  281.57   18.62
  -6  19   2    6.48    2.79
  -6  19  -2    8.30    2.23
  -6  19   3   -0.39    2.28
  -6  19  -3    1.20    1.59
  -6  19   6   -1.77    2.06
   7   0   0   -1.22    3.25
   7   0   0   -7.84    6.94
   7   0   1   45.97    8.56
   7   0  -1   50.99    7.51
   7   0  -1   38.78   10.59
   7   0   1   34.29   11.31
   7   0   2    3.11    4.96
   7   0  -2    4.57    6.07
   7   0   3  909.79   63.28
   7   0  -3  933.81   66.18
   7   0   4    1.88    4.39
   7   0  -4    2.11    4.94
   7   0   4   -3.86    9.66
   7   0   5  339.64   32.51
   7   0  -5  413.97   34.29
   7   0   5  405.03   44.35
   7   0   6   -2.30    6.11
   7   0  -6    3.89    4.55
   7   0   6    4.55    9.00
   7   0   7   15.49    7.31
  -7   0   7   21.47    7.37
   7   0  -7   25.33    7.25
   7   0   8   -2.91    6.80
  -7   0   8    1.62    6.73
  -7   0   9  432.35   37.60
  -7   0   9  497.18   30.80
  -7   0  10    1.70    6.89
  -7   0  11  706.55   50.72
  -7   0  12   -2.81    5.84
  -7   0  13   23.66    8.05
  -7   0  14   -1.11    5.66
  -7   0  15   31.48    7.13
  -7   0  16   -0.86    4.45
  -7   0  17  373.31   26.19
  -7   0  18   -0.60    3.69
  -7   0  19  130.95   10.47
  -7   0  20   -0.64    1.80
   7  -1   0  136.40   14.62
   7  -1   0  122.65   19.49
   7   1   0  128.28   18.46
   7  -1   1  281.13   23.64
   7  -1  -1  238.21   21.05
   7  -1  -1  258.57   28.27
   7  -1   1  280.47   31.73
   7   1  -1  271.27   27.61
   7   1   1  250.05   28.57
   7  -1   2 1162.99   73.41
   7  -1  -2 1048.84   68.32
   7  -1  -2 1141.17   78.94
   7   1  -2 1054.39   75.79
   7   1   2 1156.01   82.06
   7  -1   3  569.85   43.25
   7   1   3  577.80   43.07
   7  -1  -3  575.95   46.48
   7   1  -3  591.63   45.26
   7  -1   3  497.21   51.35
   7  -1   4  418.02   33.96
   7   1   4  392.12   32.95
   7  -1  -4  356.44   34.05
   7   1  -4  411.72   34.06
   7  -1   4  395.76   43.32
   7   1   4  305.67   38.24
   7  -1   5   58.34   11.75
   7   1   5   72.99   11.78
   7  -1  -5   49.01   11.08
   7   1  -5   58.59   11.04
   7  -1   5   34.25   15.01
   7   1   5   54.48   16.47
   7  -1   6  172.10   22.48
   7  -1  -6  214.51   23.59
   7   1  -6  236.71   22.45
   7  -1   6  200.41   30.73
  -7  -1   7  388.70   29.82
   7  -1   7  320.40   34.03
   7  -1  -7  376.60   33.25
   7  -1   7  320.54   41.60
   7  -1   8   43.51   12.69
  -7  -1   8   39.68   10.41
   7  -1  -8   70.76   11.77
  -7   1  -8   58.57    5.84
  -7   1   8   53.69    6.46
  -7   1   8   62.01   13.56
  -7  -1   9  293.76   27.24
  -7   1   9  306.88   20.63
  -7  -1  10 1452.56   93.68
  -7  -1  11   79.86   12.47
  -7  -1  12    1.36    6.14
  -7  -1  13  230.45   20.45
  -7  -1  14    3.22    5.46
  -7  -1  15  208.18   17.93
  -7  -1  16   64.47    8.74
  -7  -1  17   28.66    6.06
  -7  -1  18  515.49   33.27
  -7  -1  19  145.67   11.28
  -7  -1  20   37.77    4.17
   7  -2   0  258.39   21.91
   7  -2   0  262.78   30.28
   7  -2   1    1.56    4.13
   7  -2  -1    1.25    3.51
   7   2  -1   -2.24    6.25
   7   2   1   -2.60    6.08
   7  -2   2 1170.10   78.01
   7  -2  -2 1177.15   73.99
   7   2  -2 1132.22   80.21
   7   2   2 1210.06   85.30
  -7   2   2 1183.41   70.11
   7  -2   3  827.41   58.81
   7  -2   3  800.77   69.78
   7   2  -3  814.94   59.58
  -7   2   3  830.48   50.23
   7  -2   4  507.38   40.92
   7  -2   4  472.58   50.21
   7   2  -4  535.96   40.63
  -7   2   4  487.57   31.57
   7  -2   5  306.24   30.38
   7  -2   5  302.92   38.76
   7   2  -5  262.27   26.96
  -7   2  -5  336.32   21.95
   7  -2   6  339.42   32.41
   7  -2   6  326.95   39.25
   7   2  -6  274.57   26.05
  -7  -2   7  228.11   21.10
  -7   2   7  203.41   20.79
   7  -2   7  184.66   25.86
   7  -2   7  173.88   29.17
  -7   2  -7  226.28   15.04
  -7   2   7  197.02   15.36
  -7   2   7  202.64   27.10
  -7  -2   8  639.73   47.61
  -7   2   8  579.32   47.78
   7  -2   8  741.23   59.03
   7  -2   8  672.34   62.42
  -7   2  -8  743.98   41.08
  -7   2   8  604.09   41.18
  -7   2   8  687.11   58.40
  -7  -2   9  196.57   21.71
  -7   2   9  244.10   24.09
  -7   2   9  230.69   16.32
  -7  -2  10  406.92   33.46
  -7   2  10  418.42   34.90
  -7  -2  11  420.76   33.67
  -7   2  11  415.38   34.23
   7  -2  11  508.20   50.20
  -7  -2  12  147.52   15.92
  -7  -2  13    9.20    6.04
  -7  -2  14  587.59   40.21
  -7  -2  15   13.70    5.59
  -7  -2  16   76.94    9.19
  -7  -2  17  288.16   20.96
  -7  -2  18  204.89   15.30
  -7  -2  19    5.06    2.72
  -7   2  19    1.35    2.61
  -7  -2  20  110.92    8.04
  -7   2  20  100.36    8.02
  -7   3   0   20.96    4.05
   7  -3   0   30.78    7.19
   7   3   0   21.66    8.07
   7  -3   1  229.27   22.71
   7  -3  -1  252.83   22.08
   7   3  -1  245.35   25.80
   7   3   1  211.62   26.05
  -7   3   1  234.32   16.81
  -7   3  -1  242.75   17.09
   7  -3   2  396.98   35.96
   7  -3  -2  481.22   34.07
   7  -3   2  482.17   49.14
   7   3  -2  437.57   38.02
  -7   3   2  461.34   29.37
  -7   3  -2  459.18   29.65
   7  -3   3  146.18   17.96
   7  -3   3  108.17   22.79
   7   3  -3  112.48   16.29
  -7   3   3  127.59   10.44
  -7   3  -3  124.52   10.89
   7  -3   4 2015.30  134.19
   7  -3   4 1757.51  143.56
   7   3  -4 2100.97  131.92
  -7   3   4 2111.97  122.86
  -7   3  -4 2157.39  123.58
  -7   3  -5  236.60   18.16
   7   3  -5  229.83   25.63
   7  -3   5  244.61   27.41
  -7   3   5  233.43   17.47
   7  -3   5  229.19   33.20
  -7   3  -5  290.38   17.73
  -7   3   5  233.17   17.40
  -7   3  -6 1191.64   72.11
  -7  -3   6 1123.97   75.48
  -7   3   6 1175.65   76.81
   7   3  -6 1130.99   84.58
   7  -3   6 1119.01   85.08
   7  -3   6 1119.46   91.65
  -7   3  -6 1283.55   70.95
  -7   3   6 1143.44   71.15
  -7   3  -7   61.42    7.61
   7   3  -7   84.94   17.38
   7  -3   7   43.12   13.62
  -7  -3   7   65.67   11.10
  -7   3   7   51.25   11.03
   7  -3   7   66.16   17.54
  -7   3  -7   70.64    6.67
  -7   3   7   65.96    7.10
  -7   3   7   55.24   15.36
  -7   3  -8  104.74   10.47
   7   3  -8   67.78   17.00
   7  -3   8  114.52   21.47
  -7  -3   8   89.65   14.01
  -7   3   8   89.78   14.59
   7  -3   8  105.45   21.41
  -7   3  -8  110.00    8.93
  -7   3   8  111.28    9.65
  -7   3   8   76.34   17.85
  -7   3  -9  102.74   10.70
  -7  -3   9   95.14   14.93
  -7   3   9   93.23   15.06
  -7   3   9  106.24    9.40
  -7   3 -10    9.10    4.23
  -7  -3  10   10.58    7.69
  -7   3  10    3.57    7.58
   7  -3  10    8.67   10.86
  -7   3 -11   73.86    9.51
  -7  -3  11   95.39   12.47
  -7   3  11   76.99   12.99
   7  -3  11  116.87   22.62
  -7   3 -12  313.68   23.62
  -7  -3  12  333.64   25.94
  -7   3  12  328.86   26.86
  -7   3 -13  104.92   12.19
  -7  -3  13  152.81   14.53
  -7   3  13  138.25   15.03
  -7  -3  14  932.48   57.89
  -7   3  14  861.74   58.29
  -7  -3  15   36.43    7.42
  -7   3  15   33.09    7.52
  -7  -3  16  328.61   22.83
  -7   3  16  288.18   22.79
  -7  -3  17   35.44    5.67
  -7   3  17   33.48    6.13
  -7  -3  18   54.54    6.83
  -7   3  18   10.18    3.75
  -7  -3  19   23.72    3.83
  -7   3  19   28.85    4.25
  -7  -3  20   -0.24    1.39
  -7   3  20   -1.07    1.43
  -7   4   0    2.24    2.53
   7  -4   0   -1.72    4.57
  -7   4   0    5.43    2.58
   7  -4  -1  176.05   18.55
   7  -4   1  155.28   19.04
  -7   4  -1  179.49   13.26
  -7   4   1  167.79   13.41
  -7   4  -1  185.07   13.95
  -7   4   2   46.14    5.93
  -7   4  -2   42.08    5.93
   7  -4  -2   48.51    8.56
   7  -4   2   21.02    8.07
   7  -4   2   50.91   17.55
  -7   4  -2   47.59    5.68
  -7   4   2   49.56    5.76
   7  -4  -3  213.63   20.27
   7  -4   3  225.60   25.10
   7  -4   3  165.32   29.61
  -7   4  -3  259.09   16.79
  -7   4   3  229.98   16.37
  -7   4   3  218.04   16.51
  -7   4  -3  223.48   17.14
  -7   4   4    5.08    3.12
  -7   4  -4   -0.69    2.91
   7  -4   4    2.64    5.73
  -7   4  -4    4.54    2.83
  -7   4   4    5.33    3.02
  -7   4   5    9.30    3.73
  -7   4  -5    0.73    3.11
   7   4  -5    2.83    6.15
   7  -4   5    8.93    6.98
   7  -4   5   12.80   10.68
  -7   4  -5    8.52    3.16
  -7   4   5   11.16    3.22
  -7   4  -6   36.77    6.18
   7   4  -6   44.55   14.33
   7  -4   6   23.40   11.21
  -7  -4   6   22.13    7.51
  -7   4   6   26.59    8.76
   7  -4   6   32.71   12.66
  -7   4  -6   40.81    5.14
  -7   4   6   28.22    4.94
  -7   4   6   25.08   11.83
  -7   4  -7  432.67   29.33
  -7  -4   7  436.75   33.39
  -7   4   7  389.63   34.03
   7   4  -7  396.58   43.77
   7  -4   7  360.58   41.65
   7  -4   7  441.23   45.53
  -7   4  -7  455.32   27.41
  -7   4   7  386.36   27.63
  -7   4   7  427.28   47.10
  -7   4   8    8.78   10.31
  -7   4  -8   21.47    5.55
   7   4  -8   -4.04    8.04
  -7  -4   8   18.86    7.01
  -7   4   8   16.82    7.98
   7  -4   8   15.30   10.19
  -7   4  -8   17.17    3.59
  -7   4   8   18.93    4.28
  -7   4   9   65.02   17.26
  -7   4  -9   68.83    8.85
   7   4  -9   50.60   15.07
  -7  -4   9   57.23   10.97
  -7   4   9   82.90   13.63
   7  -4   9   48.97   14.99
  -7   4  -9   64.23    6.67
  -7   4   9   69.88    7.60
  -7   4 -10   33.17    6.66
   7   4 -10   25.15   11.54
  -7  -4  10   14.20    7.13
  -7   4  10   34.74   10.40
   7  -4  10   13.33   11.20
  -7   4 -11  109.29   12.39
  -7  -4  11  109.42   13.86
  -7   4  11   98.70   14.67
   7  -4  11  107.01   22.08
  -7   4 -12   10.92    5.39
  -7  -4  12    3.43    5.16
  -7   4  12    2.74    6.65
   7  -4  12   13.01    9.40
  -7   4 -13  110.52   13.78
  -7  -4  13  180.45   15.19
  -7   4  13  161.58   15.78
   7  -4  13  105.70   22.17
  -7   4 -14   12.60    5.75
  -7  -4  14   24.73    6.42
  -7   4  14   21.26    6.93
  -7  -4  15   88.47    9.53
  -7   4  15   83.27   10.16
  -7  -4  16    1.41    4.05
  -7   4  16    7.25    4.62
  -7  -4  17  154.55   13.00
  -7   4  17  175.18   13.82
  -7  -4  18   18.00    3.72
  -7   4  18   20.24    4.14
  -7  -4  19    9.17    2.46
  -7   4  19   14.04    2.88
   7  -5   0  443.01   37.23
  -7   5   0  462.09   29.14
  -7   5   0  438.50   29.61
   7  -5  -1   46.43   10.05
   7  -5   1   50.38   11.13
  -7   5  -1   63.89    6.65
  -7   5   1   59.29    6.91
  -7   5  -1   61.80    7.29
   7  -5  -2  450.59   37.02
   7  -5   2  525.74   42.85
  -7   5  -2  494.53   31.25
  -7   5   2  472.56   31.10
  -7   5   2  474.91   31.61
  -7   5  -2  510.00   32.28
  -7   5   3   16.11    3.89
  -7   5  -3   17.68    4.41
   7  -5  -3   16.18    5.58
   7  -5   3    2.77    6.98
   7  -5   3   14.33   12.70
  -7   5  -3   17.52    4.07
  -7   5   3   10.82    3.41
  -7   5  -4  198.30   15.74
   7  -5   4  212.22   26.67
   7  -5   4  156.25   28.34
  -7   5   4  169.81   14.42
  -7   5  -4  219.16   14.75
  -7   5   4  181.73   14.36
  -7   5  -5   66.36    8.68
   7   5  -5   67.88   16.86
   7  -5   5   38.27   13.58
   7  -5   5   91.66   19.50
  -7   5   5   64.26    7.41
  -7   5  -5   76.39    7.30
  -7   5   5   59.91    7.16
  -7   5   5   56.96   17.70
  -7   5  -6   -2.56    4.13
   7   5  -6    3.93    8.52
   7  -5   6    7.65    8.95
  -7  -5   6    1.35    5.48
  -7   5   6    1.60    6.18
   7  -5   6   -3.93    9.84
  -7   5  -6    5.79    3.16
  -7   5   6    3.75    3.49
  -7   5   6    5.02    9.93
  -7   5  -7    0.91    3.86
   7   5  -7   -4.21   10.54
   7  -5   7    4.13    8.17
  -7  -5   7   -1.49    6.45
  -7   5   7   -1.82    7.36
   7  -5   7   -3.76    7.43
  -7   5  -7    7.28    2.91
  -7   5   7    7.88    3.63
  -7   5   7   -5.15   11.16
  -7   5   8   54.67   17.92
  -7   5  -8   66.02    9.14
   7   5  -8   45.64   14.63
  -7  -5   8   66.37   11.45
  -7   5   8   65.48   12.64
   7  -5   8   47.20   14.06
  -7   5  -8   65.42    6.81
  -7   5   8   56.21    7.29
  -7   5   9   13.28   11.08
  -7   5  -9    5.22    4.90
   7   5  -9   11.59    9.05
  -7  -5   9    4.37    6.06
  -7   5   9   16.80    9.20
   7  -5   9    7.10    7.70
  -7   5 -10  668.12   45.89
  -7  -5  10  659.45   46.95
  -7   5  10  680.30   49.48
   7   5 -10  728.79   60.56
   7  -5  10  698.66   63.98
  -7   5 -11   22.44    6.93
   7   5 -11   19.38   10.74
  -7  -5  11   16.53    6.60
  -7   5  11   19.14    7.88
   7  -5  11    8.65   10.17
  -7   5 -12    1.23    4.98
  -7  -5  12    1.05    5.41
  -7   5  12    1.30    5.88
   7  -5  12   12.32    9.61
  -7   5 -13    2.46    5.33
  -7  -5  13    3.76    4.56
  -7   5  13   14.91    6.26
  -7   5 -14   31.10    7.85
  -7  -5  14   49.43    7.53
  -7   5  14   32.24    7.60
  -7   5 -15   23.49    6.48
  -7  -5  15   37.89    6.27
  -7   5  15   29.91    6.37
  -7   5 -16   30.95    5.87
  -7  -5  16   38.89    6.12
  -7   5  16   47.89    6.99
  -7  -5  17   14.99    3.79
  -7   5  17   16.91    4.03
  -7  -5  18  205.54   13.49
  -7   5  18  169.31   13.50
  -7  -5  19   15.13    2.37
  -7   5  19   14.01    2.60
  -7   6   0   16.61    4.20
   7  -6   0    7.03    6.60
  -7   6   0   16.01    3.88
  -7   6   1    3.89    2.93
  -7   6  -1    4.14    3.41
   7  -6  -1   10.49    6.43
   7  -6   1    2.63    6.16
  -7   6  -1    6.67    3.35
   7  -6  -2  374.50   33.23
   7  -6   2  367.52   38.20
  -7   6  -2  395.27   26.16
  -7   6   2  373.16   26.00
  -7   6   2  434.53   27.01
  -7   6  -2  385.35   27.13
   7  -6  -3 1231.02   78.65
   7  -6   3 1165.67   87.30
  -7   6   3 1122.50   71.17
  -7   6  -3 1262.72   71.09
  -7   6   3 1116.73   70.75
  -7   6  -3 1203.54   72.27
  -7   6  -4   71.66    8.68
   7  -6   4   70.48   16.58
   7  -6   4   79.34   19.91
  -7   6   4   82.70    8.27
  -7   6  -4   70.83    7.51
  -7   6   4   63.08    7.53
  -7   6   4   84.06   22.65
  -7   6  -5  190.92   16.79
  -7  -6   5  242.68   20.42
  -7   6   5  201.19   20.79
   7   6  -5  160.31   27.03
   7  -6   5  190.93   29.47
   7  -6   5  202.11   29.78
  -7   6   5  205.05   15.72
  -7   6  -5  218.19   15.51
  -7   6   5  188.11   15.36
  -7   6   5  217.98   35.93
  -7   6   6   17.23    4.53
  -7   6  -6   21.45    5.77
   7   6  -6    4.29    7.63
   7  -6   6    8.66    8.60
  -7  -6   6   12.40    7.25
  -7   6   6    5.34    7.25
   7  -6   6   11.32    9.47
  -7   6  -6   13.64    3.80
  -7   6   6   13.81    4.08
  -7   6   6    6.03   11.94
  -7   6   7   11.93   16.69
  -7   6  -7    2.00    4.51
   7   6  -7    4.37    9.47
   7  -6   7    8.98    9.73
  -7  -6   7    4.38    5.77
  -7   6   7   -3.93    7.77
   7  -6   7    3.59    8.40
  -7   6  -7    1.72    2.96
  -7   6   7    5.23    3.74
  -7   6   8  307.89   43.62
  -7   6  -8  384.16   27.23
  -7  -6   8  307.45   27.86
  -7   6   8  319.45   31.05
   7   6  -8  401.43   43.47
   7  -6   8  394.59   39.62
  -7   6  -9  228.59   19.33
  -7  -6   9  186.19   19.01
  -7   6   9  210.95   22.13
   7   6  -9  189.10   28.51
   7  -6   9  245.26   29.71
  -7   6 -10    1.22    5.27
   7   6 -10   -3.44    6.80
  -7  -6  10   -5.79    5.88
   7  -6  10   -4.35    8.60
  -7   6 -11  743.67   52.01
  -7  -6  11  793.92   50.84
  -7   6  11  755.15   52.82
   7   6 -11  763.17   63.24
   7  -6  11  809.88   69.20
  -7   6 -12   29.52    7.95
   7   6 -12   43.90   11.75
  -7  -6  12   32.56    6.83
  -7   6  12   37.82    8.39
   7  -6  12   42.14   12.83
  -7   6 -13   17.55    6.94
  -7  -6  13   19.99    5.39
  -7   6  13   25.73    7.19
  -7   6 -14   43.67    8.76
  -7  -6  14   63.23    7.79
  -7   6  14   54.70    8.08
  -7   6 -15   33.76    7.10
  -7  -6  15   52.65    6.73
  -7   6  15   41.44    6.88
  -7   6 -16    0.73    3.47
  -7  -6  16    0.54    2.79
  -7   6  16    0.67    3.62
  -7   6 -17  166.06   13.94
  -7  -6  17  212.09   14.09
  -7   6  17  206.93   14.75
  -7  -6  18   12.11    2.49
  -7   6  18    9.89    2.65
   7   7   0  636.51   53.80
  -7   7   0  688.27   44.10
  -7   7   0  750.96   45.20
   7   7   1  256.10   28.73
   7  -7   1  287.05   33.21
  -7   7  -1  295.68   20.33
  -7   7   1  287.74   20.89
  -7   7  -1  284.19   21.10
   7  -7   2  941.42   79.82
  -7   7  -2 1108.94   63.54
  -7   7   2 1045.61   63.33
  -7   7   2  993.44   63.65
  -7   7  -2 1030.45   64.38
   7  -7   3 1404.33  103.15
  -7   7   3 1358.51   82.30
  -7   7  -3 1458.77   82.19
  -7   7   3 1362.68   81.99
  -7   7   3 1276.28  108.95
  -7   7  -3 1278.76   82.96
  -7  -7   4  203.79   18.28
  -7   7   4  186.72   19.81
   7  -7   4  196.10   29.90
   7  -7   4  198.17   30.09
  -7   7   4  192.97   15.33
  -7   7  -4  209.39   15.30
  -7   7   4  187.87   15.10
  -7   7   4  174.94   34.05
  -7   7  -4  183.22   16.32
  -7   7  -5   71.66    9.22
   7  -7   5   41.52   15.14
  -7  -7   5   53.54    9.57
  -7   7   5   54.87   12.34
   7  -7   5   82.14   18.33
  -7   7   5   68.77    7.62
  -7   7  -5   68.95    7.36
  -7   7   5   55.48    7.36
  -7   7   5   61.52   22.90
  -7   7   6  225.29   41.03
  -7   7  -6  196.58   17.82
  -7  -7   6  164.63   18.48
   7   7  -6  157.64   28.55
   7  -7   6  175.56   30.70
  -7   7   6  186.95   22.38
   7  -7   6  192.21   27.57
  -7   7   6  221.53   16.36
  -7   7  -6  232.76   16.13
  -7   7  -7  696.57   41.93
  -7  -7   7  482.01   41.13
  -7   7   7  529.26   45.58
   7   7  -7  718.64   62.58
   7  -7   7  524.77   56.91
   7  -7   7  712.88   56.66
  -7   7   7  657.57   70.94
  -7   7   8  195.55   34.78
  -7   7  -8  229.73   19.21
  -7  -7   8  171.81   18.39
  -7   7   8  205.13   22.91
   7   7  -8  202.73   29.95
  -7   7  -9  405.48   32.85
  -7   7   9  486.21   32.22
  -7  -7   9  448.96   32.74
  -7   7   9  451.41   36.41
   7   7  -9  477.44   46.89
   7  -7   9  497.27   50.52
   7  -7   9  435.90   43.15
  -7   7 -10 1310.28   85.68
  -7  -7  10 1322.47   83.77
  -7   7  10 1404.33   87.53
   7   7 -10 1384.24   99.06
   7  -7  10 1558.01  106.19
  -7   7 -11   61.72   10.66
   7   7 -11   76.72   16.08
  -7  -7  11   70.77    9.11
  -7   7  11   71.18   10.85
   7  -7  11   69.48   17.18
  -7   7 -12    2.52    5.12
  -7  -7  12    0.79    3.87
  -7   7  12    4.49    5.25
  -7   7 -13  352.78   28.59
  -7  -7  13  393.09   26.29
  -7   7  13  373.99   27.71
  -7   7 -14   34.02    7.42
  -7  -7  14   25.56    4.88
  -7   7  14   34.95    6.36
  -7   7 -15  155.96   14.60
  -7  -7  15  167.72   12.75
  -7   7  15  155.20   13.69
  -7   7 -16   12.71    4.39
  -7  -7  16   10.44    3.11
  -7   7  16   10.76    3.53
  -7   7 -17   52.56    6.17
  -7  -7  17   68.84    5.61
  -7   7  17   58.73    6.06
   7   8   0  215.14   27.24
  -7   8   0  268.30   18.37
  -7   8   0  217.21   18.15
  -7   8   0  273.90   36.28
   7   8   1  126.75   19.95
  -7   8  -1  153.49   12.28
  -7   8   1  123.18   12.01
  -7   8  -1  128.24   12.18
  -7   8   1  152.96   28.30
   7   8   2 1168.19   94.40
   7  -8   2 1165.35  101.47
  -7   8   2 1380.51   82.78
  -7   8  -2 1511.80   83.00
  -7   8   2 1352.82   82.58
  -7   8  -2 1330.54   83.28
  -7   8   3  285.14   25.63
   7  -8   3  202.00   34.66
  -7   8   3  271.07   20.42
  -7   8  -3  334.27   21.16
  -7   8   3  270.73   20.47
  -7   8  -3  255.85   21.08
  -7   8   3  313.90   45.97
  -7   8   4  711.70   50.03
   7  -8   4  536.94   61.21
   7  -8   4  775.12   64.92
  -7   8   4  657.71   42.70
  -7   8   4  718.29   77.99
  -7   8  -4  657.59   44.03
  -7   8   5  101.97   29.69
  -7   8  -5   71.60    9.59
   7  -8   5   50.06   18.68
  -7   8   5   69.47   13.83
   7  -8   5   68.03   16.51
  -7   8  -6  770.81   52.26
  -7   8   6  789.54   58.80
   7   8  -6  785.97   71.48
   7  -8   6  792.01   74.09
   7  -8   6  926.86   69.04
  -7   8   6  768.73   85.35
  -7   8  -7  436.85   33.11
  -7   8   7  402.00   36.88
   7   8  -7  497.75   50.08
   7  -8   7  480.14   44.87
  -7   8  -8  830.81   55.81
  -7   8  -8  833.24   52.42
  -7   8   8  900.29   55.23
  -7   8   8  764.55   57.95
   7   8  -8  893.42   72.23
   7  -8   8  903.84   68.39
  -7   8  -8  749.37   67.48
  -7   8   9   72.86    8.08
  -7   8  -9   67.20    8.01
  -7   8   9   62.15    9.68
  -7   8  -9   61.97   10.54
   7   8  -9   81.26   16.98
  -7   8   9   65.22   11.54
   7  -8   9   71.37   17.83
  -7   8 -10  510.26   35.17
  -7  -8  10  438.64   31.13
  -7   8  10  455.54   34.41
   7   8 -10  415.56   43.05
   7  -8  10  534.10   49.79
  -7  -8  11   87.22    9.33
  -7   8 -11   85.03   12.16
  -7   8  11   96.15   11.76
  -7   8 -12  374.24   29.19
  -7  -8  12  365.54   25.60
  -7   8  12  402.84   28.25
  -7   8 -13   39.81    8.11
  -7  -8  13   33.29    5.17
  -7   8  13   26.25    6.22
  -7   8 -14  542.05   33.33
  -7   8  14  415.17   30.65
  -7   8 -15   50.84    7.31
  -7   8  15   41.98    5.83
  -7   8 -16  151.06   11.77
  -7   8  16  124.74   10.33
  -7   8 -17  132.15   10.18
  -7   9   0   49.18    7.48
   7   9   0   41.75   13.31
  -7   9   0   34.84   14.82
   7   9   1  714.13   61.42
  -7   9   1  747.65   46.12
  -7   9  -1  685.18   46.04
  -7   9  -1  714.45   66.70
  -7   9   1  685.96   70.17
   7   9   2  488.83   47.79
  -7   9  -2  536.06   53.68
  -7   9  -2  496.51   34.21
   7   9   3  826.65   70.34
   7  -9   3  778.87   77.80
  -7   9  -3  859.54   74.66
  -7   9  -3  940.09   57.28
   7  -9   4  613.42   63.81
  -7   9  -4  727.38   62.32
  -7   9   4  787.11   82.47
  -7   9  -4  627.89   43.48
  -7   9  -5  862.33   55.53
   7  -9   5  928.83   80.00
   7  -9   5  882.17   70.66
  -7   9  -5  740.16   70.04
  -7   9   5  801.80   90.70
  -7   9  -6 1423.58   91.81
   7  -9   6 1693.16  117.75
   7  -9   6 1494.36  106.05
  -7   9  -6 1504.14  109.93
  -7   9   6 1497.41  132.47
  -7   9  -7  995.56   63.70
  -7   9  -7  995.92   60.86
  -7   9   7 1011.03   63.42
   7   9  -7  888.42   78.68
   7  -9   7  861.20   73.35
  -7   9  -7  938.92   79.22
  -7   9  -8   10.81    3.88
  -7   9   8    5.98    5.40
  -7   9  -8    2.50    5.75
   7   9  -8   -3.73    8.08
  -7   9   8    3.82    5.29
  -7   9  -9  449.49   35.13
  -7   9   9  516.06   32.50
  -7   9   9  403.98   33.74
  -7   9  -9  465.54   32.18
  -7   9   9  549.04   35.53
   7   9  -9  581.88   49.48
   7  -9   9  534.58   50.86
  -7   9 -10   33.30    8.08
  -7   9  10   24.14    5.90
  -7   9  10   41.06    6.00
  -7   9 -11  522.28   35.69
  -7   9  11  466.99   33.33
  -7   9 -12   38.44    7.72
  -7   9  12   29.79    5.96
  -7   9 -13  349.98   24.79
  -7   9  13  303.09   22.25
  -7   9 -14  795.00   50.66
  -7   9 -15  232.52   17.59
  -7   9 -16   91.45    8.45
  -7   9 -17  158.23   11.28
   7  10   0  188.32   28.79
  -7  10   0  201.50   33.79
  -7  10   1  359.62   49.52
   7  10   1  312.44   39.57
  -7  10  -1  381.32   26.69
  -7  10  -1  353.82   44.81
  -7  10   2  207.07   38.70
   7  10   2  228.68   30.96
  -7  10  -2  219.10   17.68
  -7  10  -2  139.16   28.02
   7  10   3   68.31   16.91
  -7  10  -3   45.38    7.83
  -7  10  -3   55.59   16.63
  -7  10   4  202.89   41.95
  -7  10  -4  224.51   18.33
  -7  10   4  219.56   18.63
   7 -10   4  208.75   33.81
  -7  10   4  243.14   17.90
  -7  10  -4  217.40   19.08
  -7  10  -4  208.55   32.85
  -7  10   5   50.50   23.84
  -7  10  -5   71.54    9.92
  -7  10  -5   63.81    8.57
  -7  10   5   56.78    8.98
   7 -10   5   84.60   21.44
   7 -10   5   62.94   15.30
  -7  10   5   73.65    8.34
  -7  10  -5   62.45   18.46
  -7  10  -6  138.92   15.24
  -7  10  -6  151.10   13.71
  -7  10   6  144.87   15.17
   7 -10   6  153.96   27.68
  -7  10   6  148.18   12.99
   7 -10   6  135.75   21.83
  -7  10  -6  130.74   24.85
  -7  10  -7  687.01   47.57
  -7  10  -7  670.87   44.95
  -7  10   7  741.12   48.41
  -7  10  -8  144.29   15.76
  -7  10  -8  154.21   13.83
  -7  10   8  157.52   16.33
  -7  10   9    0.74    3.64
  -7  10  -9    2.42    5.67
  -7  10  -9    2.88    3.66
  -7  10   9    4.18    4.90
  -7  10  10   78.25    8.55
  -7  10 -10   74.75   10.83
  -7  10 -11   11.60    6.20
  -7  10  11    6.69    3.79
  -7  10 -12  106.02   11.67
  -7  10 -13  275.92   20.84
  -7  10 -14   41.22    6.33
  -7  10 -15  118.61   10.25
  -7  10 -16   46.59    5.24
  -7  10 -17   13.52    2.31
  -7  11   0  657.45   41.80
  -7  11   0  456.68   59.40
  -7  11  -1   21.25   14.89
  -7  11   1   18.25   14.27
  -7  11   1   18.99    4.75
  -7  11  -1   13.00    5.47
   7  11   1   18.72   10.99
  -7  11  -2   -5.10   10.08
  -7  11   2   -6.62   14.34
  -7  11   2    1.61    3.56
  -7  11  -2    3.75    4.90
  -7  11   2    2.85    4.90
   7  11   2   -4.66    9.22
  -7  11  -3   -4.94   10.70
  -7  11   3    1.57    3.93
   7  11   3    4.57    8.09
  -7  11  -3    6.97    5.21
  -7  11  -3    6.60    4.64
  -7  11   3   -0.99    4.88
  -7  11  -4  101.10   23.16
  -7  11   4  123.53   32.47
   7  11   4   40.07   15.17
  -7  11  -4  102.63   11.12
  -7  11   4  102.76   12.02
  -7  11  -4   91.67   11.26
   7 -11   4  112.91   23.59
  -7  11   4   98.75   10.05
  -7  11  -5   37.30   14.58
  -7  11  -5   37.84    8.11
  -7  11  -5   56.83    8.27
  -7  11   5   53.92    9.09
   7 -11   5   55.36   17.07
   7 -11   5   36.48   12.79
  -7  11   5   65.89    7.63
  -7  11  -6  267.62   21.48
  -7  11   6  288.99   23.89
  -7  11  -6  275.23   23.10
  -7  11  -7   10.67    5.98
  -7  11  -7   18.93    5.04
  -7  11   7    6.44    6.49
  -7  11  -8  144.15   15.84
  -7  11   8  164.77   14.55
  -7  11  -8  168.62   14.44
  -7  11   8  184.01   17.26
  -7  11   9    1.50    3.80
  -7  11  -9   -1.12    5.60
  -7  11   9   -2.77    4.24
  -7  11 -10   53.53    8.82
  -7  11  10   52.39    7.17
  -7  11 -11   76.30    9.75
  -7  11  11   62.72    7.31
  -7  11 -12   11.19    4.63
  -7  11 -13    6.08    3.79
  -7  11 -14  183.71   14.00
  -7  11 -15   22.02    3.98
  -7  11 -16    0.92    1.63
  -7  12   0   32.76   16.24
  -7  12   0   43.02    6.60
  -7  12   0   53.24    7.83
  -7  12   0   50.73    8.31
  -7  12   1  202.42   34.87
  -7  12   1  174.45   14.63
  -7  12  -1  195.54   16.35
  -7  12   1  163.36   14.59
  -7  12  -1  157.49   14.91
  -7  12  -2    5.03    8.90
  -7  12   2    6.18   10.93
  -7  12   2    8.14    4.08
   7  12   2   -5.07    8.97
  -7  12  -2    1.00    5.02
  -7  12   2    3.04    5.00
  -7  12  -3  259.36   36.75
   7  12   3  244.87   35.54
  -7  12  -3  233.85   20.32
  -7  12   3  250.93   21.06
  -7  12   3  276.13   19.84
  -7  12  -4    4.71   11.03
  -7  12   4    1.52    3.49
  -7  12  -4    0.98    4.43
  -7  12   4    6.63    5.61
   7 -12   4   -4.43    8.77
   7 -12   4   -3.37    6.66
  -7  12   5    2.96    3.64
  -7  12  -5   -2.85    4.68
  -7  12   5   -2.34    4.95
   7 -12   5    4.14    7.33
  -7  12  -6   76.49   10.64
  -7  12  -6   70.64    9.64
  -7  12   6   87.51   11.70
  -7  12  -7  162.33   15.46
  -7  12   7  219.13   18.82
  -7  12  -7  222.07   18.49
  -7  12   8   18.60    5.55
  -7  12  -8   15.85    6.18
  -7  12  -8    9.79    4.40
  -7  12   8   16.52    6.18
  -7  12  -9   -4.92    4.93
  -7  12   9   -2.95    4.03
  -7  12 -10   33.74    6.71
  -7  12  10   39.02    6.10
  -7  12  11  105.65   10.16
  -7  12 -11  128.91   11.77
  -7  12 -12   17.82    4.63
  -7  12  12   11.79    3.43
  -7  12 -13  113.82   10.02
  -7  12 -14   -1.76    2.61
  -7  12 -15    5.26    2.21
  -7  12 -16   34.00    3.32
  -7  13   0 1005.26   62.73
  -7  13   0  941.17   63.87
  -7  13   0 1074.73   63.54
  -7  13   1  150.28   13.06
  -7  13  -1  122.30   12.26
  -7  13  -1  119.94   13.25
  -7  13   1  144.12   12.97
  -7  13  -1  140.43   13.29
  -7  13  -2  374.76   25.85
  -7  13   2  303.46   24.88
  -7  13   2  353.93   24.27
  -7  13  -2  292.00   24.15
  -7  13  -3  213.23   19.21
  -7  13   3  232.49   19.74
  -7  13   3  234.93   18.21
  -7  13  -3  259.58   20.05
  -7  13   4    3.68    3.63
  -7  13  -4    6.66    4.84
  -7  13   4    2.12    4.69
  -7  13  -5   61.80    8.71
  -7  13   5   55.61    9.74
  -7  13  -6    2.45    3.84
  -7  13   6   13.07    5.79
  -7  13   7  148.96   12.97
  -7  13  -7  120.69   11.71
  -7  13   7  108.49   12.80
  -7  13   8  385.44   27.87
  -7  13  -8  414.62   26.91
  -7  13   8  395.18   28.43
  -7  13  -8  407.44   28.83
  -7  13   9   91.30   10.08
  -7  13  -9  127.01   11.70
  -7  13 -10  485.83   31.89
  -7  13  10  459.40   30.86
  -7  13  11   44.03    6.05
  -7  13 -11   63.82    7.16
  -7  13  12   66.19    6.84
  -7  13 -12   81.46    7.64
  -7  13 -13   73.04    6.96
  -7  13 -14    2.29    2.11
  -7  13 -15   36.79    3.56
  -7  14   0  418.04   30.51
  -7  14   0  429.67   31.53
  -7  14   0  508.17   31.55
  -7  14  -1  140.34   13.44
  -7  14  -1  152.27   14.55
  -7  14   1  171.25   14.22
  -7  14  -1  172.99   14.52
  -7  14  -2  403.76   30.81
  -7  14  -2  483.59   32.76
  -7  14   2  454.08   32.37
  -7  14   2  512.18   31.85
  -7  14  -2  485.37   32.36
  -7  14  -3  134.51   12.83
  -7  14   3  119.30   12.79
  -7  14   3  131.10   11.86
  -7  14  -3  127.58   12.62
  -7  14  -4  284.99   21.09
  -7  14   4  244.73   20.96
  -7  14   4  266.05   19.65
  -7  14  -4  275.15   21.14
  -7  14  -5    9.69    5.11
  -7  14  -5    7.08    4.30
  -7  14   5   -3.76    4.85
  -7  14   6  495.47   33.24
  -7  14  -6  439.56   31.36
  -7  14   6  525.90   33.64
  -7  14  -6  461.75   32.56
  -7  14   7  321.07   22.43
  -7  14  -7  278.94   20.44
  -7  14   7  287.30   21.99
  -7  14   8  190.23   15.24
  -7  14  -8  180.69   13.47
  -7  14   8  174.06   14.43
  -7  14   9    5.91    3.64
  -7  14  10  292.91   20.40
  -7  14 -11   34.25    4.94
  -7  14  11   33.09    4.73
  -7  14  12  155.25   12.33
  -7  14 -12  227.85   13.56
  -7  14 -13   73.10    6.27
  -7  14 -14  159.31   10.57
  -7  15   0  229.90   17.83
  -7  15   0  214.70   17.18
  -7  15  -1  220.63   19.11
  -7  15  -1  276.75   20.42
  -7  15   1  282.62   19.89
  -7  15  -1  293.46   20.28
  -7  15  -2  156.80   14.23
  -7  15  -2  188.17   15.59
  -7  15   2  173.52   15.21
  -7  15   2  200.78   14.89
  -7  15  -2  191.00   15.20
  -7  15  -3  126.60   12.03
  -7  15   3  129.63   12.38
  -7  15   3  126.18   11.36
  -7  15  -3  128.69   11.88
  -7  15  -4  196.83   16.10
  -7  15   4  202.60   16.58
  -7  15  -4  218.95   16.62
  -7  15   5  298.17   21.28
  -7  15  -5  238.68   19.00
  -7  15   5  267.54   20.19
  -7  15  -5  275.11   19.85
  -7  15   6  819.07   50.55
  -7  15  -6  785.17   48.66
  -7  15   6  769.47   49.60
  -7  15  -6  793.07   49.49
  -7  15   7  212.52   15.87
  -7  15  -7  180.97   13.57
  -7  15   7  172.04   14.46
  -7  15  -7  184.23   14.57
  -7  15  -8   13.52    3.88
  -7  15   8   16.05    4.46
  -7  15  -9  121.06    9.78
  -7  15   9  102.47    9.94
  -7  15  10   16.13    3.71
  -7  15  11  188.22   13.27
  -7  16   0   49.74    6.22
  -7  16   0   40.29    6.51
  -7  16  -1  532.23   33.82
  -7  16   1  494.65   32.93
  -7  16  -1  520.62   33.28
  -7  16  -2    7.72    3.72
  -7  16  -2    3.22    2.96
  -7  16   2    0.64    3.56
  -7  16  -3    8.78    3.70
  -7  16  -3    0.61    3.07
  -7  16   3    1.89    3.39
  -7  16   4   13.02    5.05
  -7  16  -4   10.71    3.83
  -7  16  -4    4.53    3.29
  -7  16   4   12.88    3.98
  -7  16   5  108.88   10.65
  -7  16  -5   97.41    8.68
  -7  16   5   77.28    8.70
  -7  16  -5   99.56    8.89
  -7  16  -6   16.83    3.99
  -7  16  -6   21.71    3.76
  -7  16   6   20.75    4.13
  -7  16   6   25.14    5.51
  -7  16   7  624.51   39.72
  -7  16  -7  620.98   38.43
  -7  16  -8    3.57    2.34
  -7  16   8    7.99    3.68
  -7  16  -9   26.98    3.76
  -7  16   9   31.04    4.61
  -7  16 -10    4.48    1.85
  -7  16  10    2.24    2.23
  -7  16 -11   13.24    2.11
  -7  17   0  579.79   37.07
  -7  17   0  601.23   36.41
  -7  17  -1   36.46    5.33
  -7  17  -1   47.32    5.14
  -7  17  -2  112.27    9.63
  -7  17   2  121.44    9.90
  -7  17  -2  108.73    9.09
  -7  17   3   44.31    6.12
  -7  17  -3   40.02    4.86
  -7  17  -3   37.44    5.02
  -7  17   3   40.68    5.15
  -7  17   4    9.07    3.97
  -7  17  -4    4.55    2.41
  -7  17  -4    5.18    2.60
  -7  17   4    2.31    2.40
  -7  17   5   64.54    7.20
  -7  17  -5   53.17    5.55
  -7  17   6  522.92   30.90
  -7  17  -6  445.44   28.86
  -7  17   7   53.14    6.06
  -7  17  -7   42.22    4.40
  -7  17  -8  191.07   12.46
  -7  17   8  187.69   13.67
  -7  17   9   37.36    4.13
  -7  17  -9   31.70    3.15
  -7  18   0   97.73    8.22
  -7  18   1  188.72   13.75
  -7  18  -1  198.28   13.59
  -7  18  -2  172.29   12.18
  -7  18  -3   29.75    3.66
  -7  18  -3   24.63    2.84
  -7  18  -4   82.67    6.70
  -7  18  -4   77.96    6.14
  -7  18   5   29.11    4.18
  -7  18   6  118.17    9.30
  -7  18   7  174.68   12.14
  -7  19   0  380.03   23.17
  -7  19   1   28.50    3.23
  -7  19   2  139.10    9.65
   8   0   0   43.92   12.66
   8   0  -1    5.84    7.31
   8   0   1    3.42    6.77
   8   0  -2  449.74   40.56
   8   0   2  400.76   44.09
   8   0   3    3.97    3.93
   8   0  -3   -2.64    5.22
   8   0   4  779.89   59.17
   8   0  -4  880.89   62.58
   8   0   4  738.33   70.31
   8   0  -5    7.28    6.08
   8   0   5   10.32   12.92
   8   0  -6 1652.50  109.01
  -8   0   7    3.26    7.06
  -8   0   8    8.92    7.75
  -8   0   9    1.86    6.97
  -8   0  -9    0.93    2.30
  -8   0   9    2.65    2.78
  -8   0  10    8.76    8.07
  -8   0  11    1.55    6.74
  -8   0  12   34.01    8.64
  -8   0  13    5.82    5.55
  -8   0  14  649.79   43.72
  -8   0  15    2.54    4.38
  -8   0  16  192.87   15.63
  -8   0  17   -2.33    3.61
  -8   0  18    9.80    2.95
  -8   0  19   -0.61    1.58
   8  -1   0  400.93   33.22
   8  -1   0  340.52   40.03
   8   1   0  409.16   40.40
  -8   1   0  468.09   28.28
   8  -1   1  463.39   35.43
   8  -1  -1  460.22   42.32
   8  -1   1  446.82   44.56
   8   1  -1  413.97   39.44
   8   1   1  375.54   40.47
  -8   1   1  421.77   27.65
  -8   1   2   45.35    5.61
   8  -1   2   44.83    9.66
   8  -1  -2   35.02   10.29
   8   1  -2   39.81   11.03
   8   1   2   46.39   13.24
   8  -1   3   36.67    9.14
   8  -1  -3   22.25    9.51
   8   1  -3   78.58   14.38
   8   1   3   83.82   18.50
   8  -1   4  607.78   45.06
   8  -1  -4  641.79   48.35
   8   1  -4  434.80   42.57
   8  -1   4  441.00   52.52
   8  -1   5   -2.43    5.68
   8  -1  -5    2.60    5.14
   8   1  -5   -2.27    4.49
   8  -1   5   -5.24   12.26
   8  -1   6    5.37    6.28
  -8  -1   6   10.12    6.39
   8  -1  -6    4.98    6.61
   8   1  -6   -2.08    4.51
   8  -1   6   -5.49   12.84
  -8  -1   7  661.87   46.65
   8  -1   7  603.33   52.83
   8  -1  -7  597.63   49.68
  -8   1   7  635.51   40.20
  -8  -1   8  412.69   36.39
   8  -1   8  513.95   46.34
  -8   1  -8  489.15   29.79
  -8   1   8  444.26   30.21
  -8   1  -9    0.92    2.38
  -8   1   9   -1.63    2.49
  -8  -1  10    8.55    8.30
  -8  -1  11   74.17   12.55
  -8  -1  12  289.82   24.58
  -8  -1  13  261.58   22.12
  -8  -1  14   10.68    5.66
  -8  -1  15   59.49    8.21
  -8  -1  16  140.57   12.39
  -8  -1  17   70.38    7.70
  -8  -1  18    0.86    2.51
  -8  -1  19    7.07    2.01
   8  -2   0 1845.71  117.59
   8  -2   0 1743.48  129.75
   8   2   0 1966.94  126.78
  -8   2   0 1903.84  110.75
   8  -2   1  392.17   32.76
   8  -2  -1  421.95   41.41
   8  -2   1  375.11   42.64
   8   2  -1  407.75   38.42
   8   2   1  334.16   37.95
  -8   2   1  388.51   25.77
  -8   2  -1  397.60   25.90
  -8   2   2   38.70    5.34
  -8   2  -2   52.01    5.93
   8  -2   2   27.15    8.16
   8  -2  -2   34.84   11.76
   8   2  -2   20.76    8.56
   8   2   2   41.64   13.20
   8  -2   3  394.99   35.49
   8  -2  -3  413.68   40.02
   8  -2   3  386.76   46.24
   8   2  -3  389.19   37.06
  -8   2   3  400.39   26.96
  -8   2  -3  438.91   27.49
   8  -2   4   23.15    8.08
   8  -2  -4   14.41    7.37
   8  -2   4   56.43   17.64
   8   2  -4   50.98   10.76
   8  -2   5  215.00   25.99
   8  -2  -5  243.59   28.10
   8   2  -5  270.08   26.51
   8  -2   5  238.35   36.47
  -8  -2   6  127.39   15.35
   8  -2   6  108.58   18.29
  -8   2   6  113.24   14.53
   8  -2  -6  119.60   18.47
  -8   2  -6  125.07   10.00
  -8   2   6  105.75   10.26
   8  -2   7  205.44   25.85
   8  -2  -7  160.98   21.12
  -8  -2   7  119.01   16.37
  -8   2   7  125.11   17.49
   8  -2   7  111.27   26.20
  -8   2  -7  163.33   12.09
  -8   2   7  153.81   12.68
  -8   2   7  127.45   22.43
  -8  -2   8 1150.17   77.63
  -8   2   8 1014.28   77.30
   8  -2   8 1190.43   89.11
  -8   2  -8 1248.17   69.86
  -8   2   8 1127.01   70.26
  -8  -2   9  247.35   26.01
   8  -2   9  292.95   36.09
  -8   2  -9  312.25   19.79
  -8   2   9  276.97   20.07
  -8  -2  10  178.80   19.35
  -8  -2  11  132.95   16.01
  -8  -2  12  181.52   17.89
  -8  -2  13  225.97   19.74
  -8  -2  14  369.43   27.16
  -8  -2  15   88.57    9.88
  -8  -2  16   17.29    4.66
  -8  -2  17   98.21    9.10
  -8  -2  18    5.67    2.82
  -8   2  18    5.58    2.65
  -8  -2  19   45.71    4.41
  -8   2  19   47.63    4.62
   8  -3   0  739.02   53.92
   8  -3   0  716.86   65.84
  -8   3   0  773.19   47.17
   8  -3   1 1473.93   97.90
   8  -3  -1 1618.24   96.42
   8  -3  -1 1555.46  109.96
  -8   3   1 1478.08   89.28
  -8   3  -1 1488.74   89.40
  -8   3   2   48.80    6.06
  -8   3  -2   40.40    5.74
   8  -3   2   47.32   10.45
   8  -3  -2   49.47   14.88
   8  -3   3  193.91   24.28
   8  -3  -3  254.67   30.67
   8  -3   3  218.02   34.94
  -8   3   3  233.80   17.45
  -8   3  -3  271.54   17.81
  -8   3   3  236.50   17.56
  -8   3  -3  241.81   17.79
   8  -3   4  129.49   19.36
   8  -3  -4  151.07   22.64
  -8   3   4  166.31   12.86
   8  -3   4  153.94   29.16
  -8   3  -4  175.21   12.89
  -8   3   4  146.66   12.60
  -8   3  -4  148.26   12.81
   8  -3   5  308.26   33.37
   8  -3  -5  346.75   35.64
   8  -3   5  274.80   40.67
  -8   3  -5  379.34   23.31
  -8   3   5  319.38   23.15
  -8   3  -5  326.11   23.32
   8  -3   6   74.84   15.84
   8  -3  -6   71.10   15.34
  -8  -3   6   66.03   11.92
  -8   3   6   76.24   12.83
   8  -3   6   77.24   21.40
  -8   3  -6   97.34    8.42
  -8   3   6   90.79    8.80
  -8   3  -6   79.34    8.64
  -8   3   6   79.48   18.20
  -8  -3   7 1942.86  120.43
  -8   3   7 1768.77  120.49
   8  -3   7 1966.31  132.35
   8  -3  -7 2146.93  130.24
   8  -3   7 1905.38  140.23
  -8   3  -7 2025.79  113.09
  -8   3   7 1840.43  113.60
  -8   3   7 1958.38  136.39
  -8   3  -7 1885.26  113.74
   8  -3   8   70.71   17.33
  -8  -3   8   76.19   14.18
  -8   3   8   76.71   14.87
   8  -3  -8  111.16   17.28
   8  -3   8   81.43   21.29
  -8   3  -8  102.03    8.46
  -8   3   8   78.78    8.69
  -8   3  -8   75.44    8.61
  -8   3   8   65.10   18.61
  -8  -3   9  468.67   40.50
  -8   3   9  416.74   40.95
   8  -3   9  509.75   53.76
  -8   3  -9  602.62   34.43
  -8   3   9  609.84   35.25
  -8   3  -9  490.05   34.96
  -8  -3  10   54.92   11.13
  -8   3  10   52.80   11.36
   8  -3  10   69.22   18.07
  -8  -3  11    9.59    6.54
  -8   3  11    4.68    6.77
  -8  -3  12   81.26   11.21
  -8   3  12   91.68   12.88
  -8  -3  13 1130.97   72.97
  -8   3  13 1206.26   74.22
  -8  -3  14   13.16    5.27
  -8   3  14   15.45    6.21
  -8  -3  15  359.11   25.30
  -8   3  15  355.85   25.72
  -8   3  16   78.84    8.50
  -8  -3  16   61.13    7.58
  -8  -3  17   12.91    3.44
  -8   3  17    9.76    3.71
  -8  -3  18   13.43    2.88
  -8   3  18   12.31    3.07
  -8  -3  19  137.93    9.89
  -8   3  19  162.63   10.28
   8  -4   0 2635.25  166.95
  -8   4   0 2677.63  158.67
  -8   4   0 2803.36  159.12
  -8   4   1   44.98    6.29
  -8   4  -1   51.11    6.64
   8  -4   1   40.70    9.61
   8  -4  -1   52.39    9.64
   8  -4  -1   48.61   16.36
  -8   4  -1   57.63    6.60
   8  -4   2  160.77   20.57
   8  -4   2  195.77   32.90
  -8   4  -2  199.26   14.53
  -8   4   2  184.28   14.34
  -8   4   2  177.55   14.31
  -8   4  -2  189.41   14.89
  -8   4  -3   56.59    7.45
   8  -4   3   49.43   11.92
   8  -4   3   66.01   20.38
  -8   4   3   61.88    7.36
  -8   4  -3   70.21    7.31
  -8   4   3   70.18    7.58
   8  -4   4  453.40   43.34
   8  -4   4  545.58   58.20
  -8   4   4  521.87   32.87
  -8   4  -4  503.98   32.48
  -8   4   4  488.62   32.60
  -8   4  -4  496.57   33.13
  -8   4  -5    8.64    3.67
   8  -4   5   -3.11    6.74
   8  -4   5   -5.19   10.26
  -8   4  -5    5.20    3.20
  -8   4   5    7.82    3.83
  -8  -4   6  668.98   46.55
  -8   4   6  619.91   46.95
   8  -4   6  608.51   55.76
   8  -4   6  648.41   63.99
  -8   4  -6  660.94   40.32
  -8   4   6  622.39   40.76
  -8   4   6  633.99   62.48
  -8   4  -6  635.63   41.33
  -8   4  -7    3.02    3.60
   8  -4   7   -7.80   10.91
  -8  -4   7   -4.92    7.11
  -8   4   7   20.37    9.83
   8  -4   7   -4.64    8.21
  -8   4  -7    7.06    3.33
  -8   4   7    1.36    3.14
  -8   4   7   -9.42   11.02
  -8  -4   8 1672.17  117.94
  -8   4   8 1678.50  119.63
   8  -4   8 1818.30  133.97
   8  -4   8 2198.65  139.38
  -8   4  -8 2022.50  111.50
  -8   4   8 1893.93  112.30
  -8   4   8 1818.57  136.19
  -8   4  -8 1906.20  112.99
  -8   4  -9   19.80    5.20
  -8  -4   9   29.55    9.82
  -8   4   9   24.61    9.84
   8  -4   9   36.80   13.55
  -8   4  -9   20.20    3.96
  -8   4   9   21.90    4.86
  -8   4 -10   26.57    5.70
  -8  -4  10   39.47    8.94
  -8   4  10   34.32    9.27
  -8   4 -11   29.22    6.16
  -8  -4  11   27.83    8.04
  -8   4  11   47.27    9.77
  -8  -4  12  652.97   40.47
  -8   4  12  640.78   41.47
  -8  -4  13   38.75    7.27
  -8   4  13   36.73    7.71
  -8  -4  14  537.64   35.01
  -8   4  14  497.35   35.40
  -8  -4  15    0.69    3.70
  -8   4  15    0.77    3.93
  -8  -4  16  178.17   13.93
  -8   4  16  182.32   14.49
  -8  -4  17    3.50    2.75
  -8   4  17    2.96    2.80
  -8  -4  18    1.21    1.85
  -8   4  18    0.35    1.88
   8  -5   0  147.41   18.98
  -8   5   0  170.86   13.35
  -8   5   0  158.71   13.57
   8  -5   1  387.62   38.12
   8  -5  -1  452.21   37.67
   8  -5   1  522.27   58.70
  -8   5  -1  472.21   30.66
  -8   5   1  481.73   31.06
  -8   5  -1  469.64   31.14
  -8   5   2   45.37    6.65
   8  -5   2   44.98   11.51
   8  -5   2   53.21   21.16
  -8   5  -2   61.62    6.82
  -8   5   2   64.47    6.91
  -8   5  -2   61.65    7.73
   8  -5   3  111.81   18.16
   8  -5   3  125.90   29.03
  -8   5   3  106.56   10.61
  -8   5  -3  139.78   11.17
  -8   5   3  119.45   10.81
  -8   5  -3  135.16   11.93
   8  -5   4  393.13   41.81
   8  -5   4  350.12   48.42
  -8   5   4  448.82   30.23
  -8   5  -4  496.31   30.28
  -8   5   4  429.64   29.97
  -8   5  -4  477.75   31.13
  -8   5   5   13.37    4.25
  -8   5  -5   15.92    4.93
   8  -5   5   21.26    9.45
  -8  -5   5   11.03    6.96
  -8   5   5    6.39    7.27
   8  -5   5   20.05   12.57
  -8   5  -5   21.59    4.51
  -8   5   5   24.40    4.86
  -8   5   5   21.22   14.11
  -8  -5   6  132.83   15.28
   8  -5   6  122.81   22.11
  -8   5   6   89.27   15.22
   8  -5   6  116.25   23.64
  -8   5  -6   97.18    9.37
  -8   5   6  104.47   10.22
  -8   5  -6   98.21   10.68
  -8   5   6  130.61   26.58
  -8  -5   7  582.29   45.56
  -8   5   7  618.87   47.97
   8  -5   7  556.58   58.43
   8  -5   7  577.25   58.37
  -8   5  -7  642.62   39.64
  -8   5   7  648.09   40.70
  -8   5   7  648.16   65.79
  -8   5  -7  633.61   41.48
  -8  -5   8  303.28   29.80
  -8   5   8  312.49   31.95
   8  -5   8  380.70   44.60
   8  -5   8  343.82   41.66
  -8   5  -8  416.14   25.13
  -8   5   8  383.77   26.04
  -8   5   8  361.09   45.73
  -8   5  -8  355.24   26.52
  -8   5  -9   43.00    7.40
  -8  -5   9   50.87   10.47
  -8   5   9   36.72   10.69
   8  -5   9   43.21   14.92
   8  -5   9   50.97   15.32
  -8   5 -10   34.93    7.13
  -8  -5  10   55.89    9.84
  -8   5  10   65.10   11.54
  -8   5 -11   12.49    5.04
  -8  -5  11   18.28    6.61
  -8   5  11   24.91    8.35
  -8   5 -12  110.03   12.53
  -8  -5  12  144.48   13.91
  -8   5  12  137.47   14.66
  -8   5 -13  101.33   11.54
  -8  -5  13  120.23   12.02
  -8   5  13  137.03   13.21
  -8   5 -14    5.98    3.82
  -8  -5  14    0.73    3.66
  -8  -5  15  107.87   10.00
  -8   5  15  107.92   10.62
  -8  -5  16   74.97    7.12
  -8   5  16   53.88    6.96
  -8  -5  17   40.83    4.70
  -8   5  17   42.96    5.14
  -8  -5  18    1.94    1.39
  -8   5  18    1.35    1.50
  -8   6   0    3.61    3.73
   8  -6   0   -2.32    5.80
  -8   6   0    6.95    4.03
  -8   6   1   12.04    4.20
  -8   6  -1   14.84    4.81
   8  -6  -1   27.11    8.09
   8  -6   1   10.33    6.11
   8  -6   1   32.37   18.13
  -8   6  -1   17.78    4.26
  -8   6   2   12.61    4.30
  -8   6  -2   22.25    5.16
   8  -6   2   11.58    8.15
   8  -6   2   18.72   14.63
  -8   6  -2   17.94    4.23
  -8   6   2   14.71    4.26
  -8   6   3   17.32    4.59
  -8   6  -3   20.74    5.35
   8  -6   3    9.77    8.20
   8  -6   3   23.16   14.51
  -8   6  -3   16.05    4.38
  -8   6   3   13.12    4.16
  -8   6   3    5.38   10.68
   8  -6   4 1687.36  120.67
   8  -6   4 1956.48  133.68
  -8   6   4 1598.51  102.11
  -8   6  -4 1862.61  102.45
  -8   6   4 1663.27  102.20
  -8   6   4 1799.80  135.33
  -8   6  -4 1733.94  103.43
  -8   6   5    4.19    3.81
  -8   6  -5    4.33    4.40
   8  -6   5    8.16    9.55
  -8  -6   5   -1.40    6.05
  -8   6   5   -1.74    6.90
   8  -6   5   -4.78   12.69
  -8   6  -5    4.44    3.23
  -8   6   5    4.32    3.49
  -8   6   5    6.21   12.29
  -8  -6   6  585.90   40.01
  -8   6   6  463.72   40.52
   8  -6   6  483.08   52.09
   8  -6   6  538.76   53.64
  -8   6  -6  510.99   33.48
  -8   6   6  526.53   34.48
  -8   6   6  550.73   62.38
  -8   6  -6  488.13   34.98
  -8   6   7   12.10   11.98
  -8   6  -7   17.03    5.47
   8  -6   7   19.10   11.19
  -8  -6   7   10.98    7.24
  -8   6   7    2.04    7.90
   8  -6   7   12.18    9.53
  -8   6  -7   13.00    4.36
  -8   6   7    9.78    4.67
  -8   6  -8  213.58   17.62
  -8   6   8  150.92   29.97
  -8  -6   8  181.28   19.55
  -8   6   8  185.77   21.87
   8  -6   8  167.03   29.99
  -8   6  -9    9.20    5.27
  -8  -6   9    5.22    6.21
  -8   6   9   -1.73    6.84
   8  -6   9   -4.86   10.54
   8  -6   9   -3.63    6.42
  -8   6 -10   72.64    9.62
  -8  -6  10   41.15    8.70
  -8   6  10   49.45   10.63
  -8   6 -11    3.19    5.33
  -8  -6  11    4.91    4.60
  -8   6  11    5.06    6.72
  -8   6 -12  210.86   20.02
  -8  -6  12  277.10   20.11
  -8   6  12  256.59   21.05
  -8   6 -13    0.96    4.17
  -8  -6  13    2.93    3.67
  -8   6  13   11.01    5.51
  -8  -6  14  207.29   15.74
  -8   6  14  225.38   16.97
  -8   6 -14  185.73   16.54
  -8   6 -15    0.57    3.13
  -8  -6  15    0.51    2.69
  -8   6  15   -0.63    3.26
  -8  -6  16  269.56   18.16
  -8   6  16  280.96   18.96
  -8  -6  17    0.25    1.47
  -8   6  17    2.98    1.76
   8  -7   0  729.52   58.26
  -8   7   0  737.66   46.35
  -8   7   0  728.03   46.81
  -8   7   1   17.92    5.24
  -8   7  -1    8.62    4.20
   8  -7  -1   14.21    7.86
   8  -7   1    9.06    7.58
  -8   7  -1    9.46    3.92
   8  -7   2   82.07   17.28
   8  -7   2   63.35   21.53
  -8   7   2   83.81    9.21
  -8   7  -2  106.56    9.79
  -8   7   2   88.35    9.10
  -8   7  -2   74.68    9.35
  -8   7   2   77.58   22.99
   8  -7   3  465.94   50.56
   8  -7   3  675.70   65.18
  -8   7   3  525.67   35.57
  -8   7  -3  568.65   35.66
  -8   7   3  530.99   35.45
  -8   7  -3  547.16   36.45
  -8   7   3  514.33   61.63
  -8  -7   4  704.75   48.87
  -8   7   4  731.51   52.08
   8  -7   4  569.96   61.90
   8  -7   4  797.09   71.26
  -8   7   4  671.93   45.11
  -8   7  -4  795.94   45.68
  -8   7   4  691.45   45.35
  -8   7   4  604.92   71.93
  -8   7  -4  725.22   46.56
   8  -7   5  116.64   23.88
  -8  -7   5  109.42   14.80
  -8   7   5  135.46   18.30
   8  -7   5  104.03   22.88
  -8   7   5  136.36   12.19
  -8   7  -5  159.15   12.50
  -8   7   5  139.06   12.78
  -8   7  -5  134.81   13.54
  -8   7   5  151.09   35.12
  -8   7   6   78.56   25.70
   8  -7   6   54.40   18.11
  -8  -7   6   77.06   12.03
  -8   7   6   85.29   15.12
   8  -7   6   78.10   19.12
  -8   7  -6   96.75   10.71
  -8   7   7  118.46   28.69
   8  -7   7  106.33   24.61
  -8  -7   7   92.77   13.29
  -8   7   7  106.10   17.36
   8  -7   7  159.75   24.47
  -8   7  -7  139.70   13.33
  -8  -7   8  602.30   40.64
  -8   7   8  536.67   43.87
   8  -7   8  500.13   56.83
   8  -7   8  543.95   52.14
  -8   7   8  621.32   65.05
  -8   7  -8  570.41   39.38
  -8   7  -9   98.71   12.18
  -8   7  -9  103.11    9.67
  -8   7   9  119.53   11.72
  -8  -7   9   79.26   11.14
  -8   7   9  102.73   14.44
   8  -7   9  104.60   22.58
  -8   7 -10   45.48    8.55
  -8  -7  10   43.28    7.57
  -8   7  10   64.52   10.52
  -8  -7  11  312.05   21.39
  -8   7  11  287.45   23.08
  -8   7 -12  278.45   23.79
  -8  -7  12  307.60   22.28
  -8   7  12  359.28   24.75
  -8   7 -13    6.57    5.14
  -8  -7  13   10.58    3.56
  -8   7  13    5.65    4.25
  -8   7 -14   33.82    6.11
  -8  -7  14   30.69    4.76
  -8   7  14   36.74    5.91
  -8   7 -15   -1.66    2.59
  -8  -7  15   -1.12    2.04
  -8   7  15    2.09    2.92
  -8   7  16  141.52   10.62
   8  -8   0  289.46   35.85
  -8   8   0  398.49   26.54
  -8   8   0  377.60   26.50
  -8   8   0  368.77   45.85
   8  -8  -1  758.96   60.63
   8  -8   1  828.01   66.63
  -8   8   1  754.99   49.02
  -8   8  -1  795.10   49.04
  -8   8  -1  747.46   49.16
  -8   8  -1  795.39   70.71
  -8   8   2   16.76    4.70
  -8   8  -2    8.50    4.78
   8  -8   2   -4.03    7.14
   8  -8   2   30.73   18.84
  -8   8  -2    4.52    3.98
  -8   8   2   14.39    4.37
  -8   8  -2    8.58   10.74
  -8   8   3  380.62   33.78
   8  -8   3  333.12   43.62
  -8   8   3  437.71   28.74
  -8   8  -3  406.67   29.38
  -8   8   3  445.64   56.99
  -8   8   4  114.70   33.14
   8  -8   4  102.95   23.54
  -8   8   4  118.66   16.86
  -8   8   4  111.27   11.29
  -8   8  -4  126.67   12.56
  -8   8   5  744.27   56.18
   8  -8   5  593.71   67.29
   8  -8   5  806.12   69.30
  -8   8   5  789.48   48.39
  -8   8   5  813.37   86.77
  -8   8  -5  751.88   49.75
  -8   8   6   53.84   22.68
  -8   8  -6   38.09    7.38
   8  -8   6   20.95   14.83
  -8   8   6   45.36   11.77
   8  -8   6   73.28   17.22
  -8  -8   7  442.32   33.87
  -8   8   7  544.21   40.16
   8  -8   7  435.99   52.16
   8  -8   7  487.75   47.56
  -8   8  -7  453.13   47.98
  -8   8   7  527.44   62.75
  -8   8  -7  501.55   34.57
  -8   8  -8  209.24   15.68
  -8   8   8  231.86   18.43
  -8  -8   8  149.73   16.01
  -8   8   8  207.28   20.99
   8  -8   8  199.44   31.76
   8  -8   8  162.29   24.86
  -8   8  -8  199.37   17.88
  -8   8  -9  500.48   32.11
  -8   8   9  536.69   34.67
  -8  -8   9  422.33   32.34
  -8   8   9  531.37   37.04
  -8   8  -9  468.89   34.75
  -8  -8  10  263.43   19.94
  -8   8  10  266.23   22.35
  -8   8 -10  290.97   22.55
  -8   8 -11  322.27   24.95
  -8  -8  11  312.05   22.04
  -8   8  11  318.97   24.22
  -8   8 -12   -0.98    4.49
  -8   8  12   -2.38    3.84
  -8   8  13  258.02   19.52
  -8   8 -13  279.54   20.92
  -8   8  14  145.15   11.68
  -8   8 -14  146.58   12.72
  -8   8  15  114.07    9.16
  -8   8 -15  136.25   10.58
  -8   8 -16   15.07    2.68
   8  -9   0  632.72   60.26
  -8   9   0  742.19   46.61
  -8   9   0  726.71   71.24
   8  -9  -1  321.69   35.68
   8  -9   1  325.24   39.81
  -8   9   1  376.59   25.56
  -8   9  -1  344.90   25.65
  -8   9  -1  334.92   43.70
  -8   9   1  407.55   50.12
  -8   9   2   67.92    8.34
  -8   9  -2   72.02    9.28
   8  -9   2   69.30   19.16
  -8   9   3   14.97   13.34
  -8   9   3   29.00    5.72
  -8   9  -3   32.28    6.58
   8  -9   3   30.25   14.19
  -8   9   3   21.02    8.50
   8  -9   3   25.12   13.43
  -8   9  -3   63.51   17.56
  -8   9   4  341.02   53.95
  -8   9   4  257.51   28.24
   8  -9   4  239.37   38.79
   8  -9   4  393.46   43.31
  -8   9   4  348.83   23.51
  -8   9  -4  296.25   39.05
  -8   9  -4  335.50   24.72
  -8   9   5   33.19   22.12
  -8   9   5   30.47    6.17
  -8   9  -5   39.56    7.34
   8  -9   5   43.05   16.63
  -8   9   5   41.87   11.02
   8  -9   5   67.11   17.24
  -8   9  -5   56.52   16.46
  -8   9   6  313.38   50.66
  -8   9   6  323.78   25.56
  -8   9   6  308.15   28.62
   8  -9   6  392.61   46.68
   8  -9   6  345.13   38.47
  -8   9  -6  362.06   41.81
  -8   9  -6  342.73   25.86
  -8   9  -7  494.80   31.82
  -8   9   7  524.10   34.66
  -8   9   7  426.65   35.03
   8  -9   7  414.13   50.06
  -8   9  -7  425.27   33.05
  -8   9  -8  248.77   18.14
  -8   9   8  243.40   20.55
  -8   9   8  202.72   19.70
  -8   9  -8  217.86   19.65
  -8   9  -9    1.09    5.73
  -8   9   9   12.46    5.30
  -8   9   9    9.61    5.11
  -8   9  10  117.50   12.37
  -8   9 -10  154.29   14.43
  -8   9 -11   57.27    8.90
  -8   9  11   50.98    6.94
  -8   9 -12  212.35   17.61
  -8   9 -13  365.72   25.64
  -8   9 -14   23.48    4.56
  -8   9 -15   54.93    5.81
   8 -10   0 1511.79  118.93
  -8  10   0 1694.43  100.85
  -8  10   0 1783.68  132.66
  -8  10   1   25.86    5.80
  -8  10  -1   31.87    6.43
   8 -10  -1   34.43   11.87
   8 -10   1   50.19   16.20
  -8  10  -1   15.96   11.61
  -8  10   2  139.48   12.74
  -8  10  -2  159.07   13.80
  -8  10  -2  166.57   29.65
  -8  10  -3   11.27    5.01
   8 -10   3   -5.29   10.48
   8 -10   3    9.14    9.91
  -8  10  -3   14.58   11.39
  -8  10   4   64.09   24.76
  -8  10  -4   58.31    9.03
  -8  10  -4   53.02    8.09
  -8  10   4   57.65    8.86
   8 -10   4   75.12   19.83
   8 -10   4   68.89   16.74
  -8  10  -4   42.63   17.07
  -8  10   5   40.21   21.53
  -8  10  -5   54.61    8.64
  -8  10  -5   53.04    8.06
  -8  10   5   48.57    8.38
   8 -10   5   68.01   20.37
   8 -10   5   36.41   12.80
  -8  10  -5   50.94   17.61
  -8  10  -6  111.24   11.91
  -8  10   6  152.89   14.73
  -8  10  -6  117.74   13.19
  -8  10  -7   21.58    6.83
  -8  10  -7   16.66    4.78
  -8  10   7   22.53    7.12
  -8  10   8  498.58   32.32
  -8  10  -8  441.51   32.13
  -8  10   8  548.14   35.92
  -8  10  -8  495.94   34.83
  -8  10   9   -0.59    2.97
  -8  10  -9   -1.02    4.79
  -8  10   9   -1.73    4.33
  -8  10 -10  151.49   14.20
  -8  10 -11   75.32    9.28
  -8  10 -12  232.18   17.92
  -8  10 -13    5.36    3.09
  -8  10 -14   57.30    6.23
  -8  10 -15   13.58    2.70
  -8  11   0   73.83   21.59
  -8  11   0  111.70   11.99
   8 -11   0   97.83   21.16
  -8  11   0  113.88   11.24
  -8  11  -1  112.69   25.73
  -8  11   1   91.44   25.33
  -8  11  -1  101.14   11.32
   8 -11   1   61.55   18.15
  -8  11  -1  107.78   11.15
  -8  11  -2   10.29   12.08
  -8  11   2   39.50   18.44
  -8  11  -2   17.17    5.52
  -8  11  -2   21.68    6.27
  -8  11   2   17.06    5.72
  -8  11  -3  605.72   38.82
  -8  11   3  567.94   38.65
  -8  11  -3  526.39   38.04
  -8  11  -4  122.40   12.59
  -8  11   4  111.11   12.65
  -8  11  -4  129.85   13.03
  -8  11  -5    2.03    4.67
  -8  11  -5    5.42    4.23
  -8  11   5    9.96    6.43
  -8  11  -6   50.32    8.85
  -8  11  -6   77.65    9.25
  -8  11   6   65.17   10.00
  -8  11  -7  155.32   14.08
  -8  11   7  161.11   16.18
  -8  11  -7  176.30   15.83
  -8  11   8  117.21   10.35
  -8  11  -8   89.42    9.68
  -8  11   8  129.64   12.75
  -8  11  -8   82.28   10.94
  -8  11   9   60.72    7.27
  -8  11  -9   78.04    9.57
  -8  11 -10   53.92    7.38
  -8  11  10   33.07    4.93
  -8  11 -11   34.57    6.01
  -8  11 -12   75.16    8.03
  -8  11 -13   13.70    3.56
  -8  11 -14   10.62    2.65
  -8  11 -15   18.87    2.46
  -8  12   0   48.13    8.27
  -8  12  -1   -0.97    4.36
  -8  12  -2  112.23   12.19
  -8  12   2  127.74   12.67
  -8  12   3    5.90    3.75
  -8  12  -3    0.92    4.32
  -8  12  -3   -3.84    4.57
  -8  12   3    3.00    5.16
  -8  12  -4 1514.41   90.46
  -8  12   4 1419.42   90.76
  -8  12   4 1482.63   88.87
  -8  12  -4 1487.29   90.49
  -8  12  -5    0.96    4.73
  -8  12  -5    0.88    4.04
  -8  12   5   -2.15    5.30
  -8  12  -6   85.68   10.20
  -8  12  -6   77.54    8.95
  -8  12   6   81.05   10.98
  -8  12   7   -2.16    3.49
  -8  12  -7   -0.92    4.44
  -8  12  -7    1.39    3.63
  -8  12   7    1.01    4.80
  -8  12   8  293.66   20.23
  -8  12  -8  255.75   19.39
  -8  12   8  287.41   21.42
  -8  12  -8  287.59   21.62
  -8  12  -9    4.64    4.64
  -8  12   9    0.55    2.90
  -8  12 -10  140.26   11.83
  -8  12  10  120.07   10.27
  -8  12 -11    5.13    3.04
  -8  12 -12  376.87   24.58
  -8  12 -13    0.72    2.12
  -8  12 -14   29.70    3.34
  -8  13   0   71.65    9.49
  -8  13   0   75.82    9.13
  -8  13  -1   99.82   11.39
  -8  13   1  112.29   10.84
  -8  13   2   11.67    4.72
  -8  13  -2    7.41    5.27
  -8  13   2    6.50    4.95
  -8  13  -3 1060.88   62.86
  -8  13   3  967.37   62.54
  -8  13   3  958.96   60.99
  -8  13  -4   62.63    8.72
  -8  13   4   56.92    8.89
  -8  13  -5  332.74   24.81
  -8  13   5  342.32   25.90
  -8  13  -5  373.15   25.77
  -8  13  -6   10.81    4.84
  -8  13  -6   13.83    4.56
  -8  13   6    0.92    4.47
  -8  13   7    8.85    4.26
  -8  13  -7    3.90    4.37
  -8  13  -7    2.87    2.83
  -8  13   7    3.21    4.33
  -8  13   8   65.59    7.38
  -8  13  -8   68.87    8.16
  -8  13   8   59.90    7.24
  -8  13   9  374.84   24.78
  -8  13  -9  377.50   25.56
  -8  13 -10    2.13    2.87
  -8  13  10   -1.22    2.31
  -8  13 -11  497.52   31.28
  -8  13 -12   32.98    4.10
  -8  13 -13   25.95    3.08
  -8  14   0    7.21    4.10
  -8  14   0    5.79    4.64
  -8  14  -1  148.86   13.83
  -8  14   1  145.44   12.80
  -8  14  -1  160.18   13.49
  -8  14  -2  295.79   22.93
  -8  14   2  301.59   22.89
  -8  14   2  328.59   22.33
  -8  14  -2  320.84   22.83
  -8  14  -3   62.74    8.26
  -8  14   3   68.86    8.77
  -8  14  -4  684.38   43.12
  -8  14   4  654.79   43.35
  -8  14  -5  145.30   12.71
  -8  14   5  148.57   13.36
  -8  14   6    1.39    3.59
  -8  14  -6   -2.20    3.15
  -8  14   6    2.84    3.71
  -8  14   7  110.41    9.83
  -8  14  -7   82.34    7.90
  -8  14   7   93.28    9.02
  -8  14  -8   53.23    6.31
  -8  14   8   44.53    6.00
  -8  14  -9   97.19    8.00
  -8  14   9   68.04    7.30
  -8  14 -10  407.01   23.21
  -8  14  10  319.79   22.27
  -8  14 -11   58.82    5.50
  -8  14 -12  102.28    7.40
  -8  15   0  317.97   23.30
  -8  15   0  348.27   23.15
  -8  15   1    2.37    3.67
  -8  15  -1    1.24    3.34
  -8  15  -1    2.03    3.38
  -8  15  -2   36.21    5.69
  -8  15  -2   37.68    5.98
  -8  15   2   40.17    6.18
  -8  15  -3  499.74   32.86
  -8  15   3  498.17   32.98
  -8  15  -3  513.61   32.88
  -8  15  -4  260.91   18.76
  -8  15   4  265.88   19.13
  -8  15  -4  265.29   18.96
  -8  15   5   19.93    4.95
  -8  15  -5   29.84    4.74
  -8  15  -5   20.85    4.08
  -8  15   5   15.17    3.97
  -8  15   6   73.35    7.89
  -8  15  -6   67.79    6.63
  -8  15   7   13.89    3.71
  -8  15   8  149.85   11.55
  -8  15   9   68.36    6.25
  -8  15 -11  130.72    8.76
  -8  16   0  600.42   37.98
  -8  16   0  614.14   37.69
  -8  16  -1   21.29    3.95
  -8  16  -1   17.47    3.93
  -8  16  -2  255.39   18.52
  -8  16   2  276.14   18.70
  -8  16  -2  276.28   18.48
  -8  16   3   40.12    5.88
  -8  16  -3   29.03    4.50
  -8  16  -3   32.78    4.66
  -8  16   3   34.30    4.79
  -8  16   4   26.32    5.02
  -8  16  -4   30.46    4.24
  -8  16  -4   21.90    3.82
  -8  16  -5    4.71    2.34
  -8  16   5   13.44    3.88
  -8  16  -6    7.42    2.61
  -8  16   6    8.27    3.39
  -8  16  -7   28.50    3.43
  -8  16   7   19.31    3.63
  -8  16  -8   95.86    6.95
  -8  16   8   84.34    7.27
  -8  16  -9    2.77    1.34
  -8  17   1   46.28    5.45
  -8  17   2   -0.43    2.56
  -8  17   3  194.30   13.72
  -8  17  -3  185.44   12.54
  -8  17   4  146.53   11.08
  -8  17  -4  143.85    9.93
  -8  17  -5    3.80    1.53
  -8  17   5    6.50    2.65
  -8  17  -6    0.57    1.21
  -8  17   6    1.33    1.93
  -8  18   0   17.05    2.61
  -8  18  -1  105.57    7.62
  -8  18   2   33.31    3.59
   9   0   0    3.60    7.80
   9   0  -1  124.38   20.96
   9   0   1  125.54   22.53
   9   0  -2    3.18    6.29
   9   0   2   -4.34    7.67
   9   0  -3  796.51   64.76
   9   0   3  838.75   74.72
   9   0  -4   -5.80    6.80
   9   0  -5   21.86    9.13
  -9   0   6    4.92    7.40
  -9   0   7  138.51   17.84
  -9   0   7  153.06   12.76
  -9   0   8    3.72    8.06
  -9   0  -8   -0.53    2.64
  -9   0   8   -1.21    3.34
  -9   0   9  300.47   28.27
  -9   0  -9  341.75   21.24
  -9   0   9  283.12   20.89
  -9   0  10   -1.62    7.46
  -9   0  11   80.15   12.15
  -9   0  12    8.19    5.30
  -9   0  13   10.70    5.99
  -9   0  14   -0.81    4.25
  -9   0  15    4.63    4.06
  -9   0  16    0.53    3.28
  -9   0  17   90.89    7.81
  -9   0  18    0.26    1.40
   9  -1   0  833.95   74.31
   9   1   0 1047.69   76.31
   9  -1  -1   42.44   13.57
   9  -1   1   37.79   14.18
   9   1  -1   48.83   13.49
   9   1   1   86.36   18.70
   9  -1  -2   79.69   17.32
   9  -1   2   46.54   16.92
   9   1  -2   83.46   17.30
   9   1   2   66.19   18.34
   9  -1  -3   31.65   11.23
   9   1  -3    8.82    6.42
   9  -1  -4  115.42   19.30
   9   1  -4   91.55   16.92
   9  -1  -5   11.60    7.83
   9   1  -5   48.72   11.43
   9  -1   5   37.03   17.32
  -9  -1   6  196.36   20.49
   9  -1  -6  157.93   22.63
  -9   1  -6  214.06   15.20
  -9   1   6  187.30   15.48
  -9  -1   7   56.12   12.27
  -9   1  -7   56.91    6.57
  -9   1   7   60.88    7.40
  -9  -1   8  100.70   16.41
  -9   1  -8  125.41   10.28
  -9   1   8  120.04   10.77
  -9  -1   9    3.53    6.98
  -9  -1  -9    3.01    2.48
  -9  -1   9    2.56    2.69
  -9   1  -9    3.94    2.58
  -9  -1  10  201.66   20.85
  -9  -1  11   70.30   11.54
  -9  -1  12   70.84   11.11
  -9  -1  13    0.95    5.24
  -9  -1  14   36.18    6.62
  -9  -1  15   64.44    7.80
  -9  -1  16    4.12    3.10
  -9  -1  17    1.92    2.18
  -9  -1  18   78.76    6.18
   9  -2   0   53.93   17.41
  -9   2   0   83.85    8.37
   9  -2  -1 1018.22   82.54
   9  -2   1 1030.02   86.93
  -9   2   1 1043.52   64.32
  -9   2  -1 1093.95   64.50
   9  -2   2  291.17   30.48
   9  -2  -2  381.59   39.56
  -9   2  -2  371.18   24.20
   9  -2   3   -2.29    4.53
   9  -2  -3   -3.34    5.90
   9  -2   4  200.26   24.03
   9  -2  -4  191.76   26.55
  -9   2  -4  219.08   15.89
  -9   2   4  211.46   16.33
   9  -2   5  169.18   22.28
   9  -2  -5  156.66   23.25
   9  -2   5  136.88   30.63
  -9   2  -5  175.65   13.47
  -9   2   5  164.30   13.87
  -9  -2   6  470.05   37.11
   9  -2   6  408.94   41.80
   9  -2  -6  523.94   45.07
   9  -2   6  459.95   56.86
  -9   2  -6  493.22   30.90
  -9   2   6  451.16   31.37
  -9   2   6  498.40   48.46
  -9  -2   7 1240.93   82.43
  -9   2  -7 1348.38   74.93
  -9   2   7 1141.85   75.06
  -9  -2   8  228.00   24.46
  -9   2  -8  288.66   18.60
  -9   2   8  240.89   18.69
  -9  -2   9  101.63   15.47
  -9  -2   9  108.93    9.63
  -9   2  -9  116.89    9.55
  -9   2   9  109.94    9.90
  -9  -2  10  260.68   23.94
  -9  -2  11   14.35    6.78
  -9  -2  12   73.85   10.39
  -9  -2  13  380.14   27.55
  -9  -2  14  147.37   13.15
  -9  -2  15  236.38   17.47
  -9  -2  16   19.93    4.03
  -9  -2  17   -0.36    1.94
  -9   2  17   -4.16    2.35
  -9  -2  18   67.43    5.33
  -9   2  18   68.55    5.49
   9  -3   0 1229.00  104.75
  -9   3   0 1364.16   82.97
  -9   3   0 1419.42   82.81
  -9   3   1   25.29    5.15
  -9   3  -1   20.61    4.62
   9  -3  -1   41.74   14.84
   9  -3   1   10.16   11.10
  -9   3  -1   33.85    5.37
   9  -3   2  960.79   75.61
   9  -3  -2  982.08   84.46
  -9   3   2 1123.40   67.36
  -9   3  -2 1172.82   67.73
  -9   3   2 1090.32   67.61
  -9   3  -2 1134.90   67.49
  -9   3  -3   39.13    5.70
   9  -3   3   30.87    9.63
   9  -3   3   17.90   14.12
  -9   3  -3   34.02    5.44
  -9   3   3   40.71    6.13
  -9   3  -4    4.27    2.91
   9  -3   4   -2.59    5.12
   9  -3  -4    3.40    6.73
   9  -3   4   -6.18   10.94
  -9   3  -4   -0.62    3.25
  -9   3   4    2.78    3.07
  -9   3  -5   14.26    3.85
   9  -3   5   14.24    8.38
  -9  -3   5   13.35    7.68
   9  -3  -5   19.55    9.58
   9  -3   5   18.55   15.48
  -9   3  -5    9.09    3.85
  -9   3   5   10.58    3.95
  -9  -3   6 1961.82  120.09
  -9   3   6 1867.11  120.43
   9  -3   6 1718.92  127.50
   9  -3  -6 2050.90  130.86
   9  -3   6 1807.33  144.14
  -9   3  -6 2039.68  113.23
  -9   3   6 1818.02  113.57
  -9   3   6 1913.02  137.11
   9  -3   7   66.91   16.79
  -9  -3   7   46.51   11.94
  -9   3   7   54.50   13.37
   9  -3   7   40.05   17.09
  -9   3  -7   70.70    7.21
  -9   3   7   51.32    7.22
  -9   3   7   38.52   14.02
  -9  -3   8  602.47   46.90
  -9   3   8  636.10   48.68
   9  -3   8  546.35   56.15
  -9   3  -8  658.53   39.74
  -9   3   8  631.41   40.40
  -9  -3   9   12.96    8.26
  -9   3   9   14.49    8.66
  -9   3  -9   11.51    3.31
  -9   3   9   16.52    3.98
  -9  -3  10  161.57   17.95
  -9   3  10  181.22   19.17
  -9  -3  11   18.07    6.11
  -9   3  11   17.47    7.20
  -9  -3  12   99.49   11.73
  -9   3  12  102.31   12.36
  -9  -3  13   12.66    5.25
  -9   3  13   20.25    6.26
  -9  -3  14 1304.83   77.04
  -9   3  14 1232.86   77.28
  -9  -3  15    3.97    3.14
  -9   3  15    4.31    3.41
  -9  -3  16   19.40    3.66
  -9   3  16   11.57    3.44
  -9  -3  17    3.09    1.81
  -9   3  17    5.81    2.24
  -9   4   0    3.98    3.37
   9  -4   0   -5.20   12.16
  -9   4   0    3.91    3.55
   9  -4   1  973.31   71.35
   9  -4  -1  946.29   84.20
  -9   4   1 1055.60   62.37
  -9   4  -1 1023.08   62.23
  -9   4  -1  994.41   62.22
   9  -4   2  810.29   64.02
   9  -4  -2 1002.85   77.99
  -9   4   2  885.29   54.70
  -9   4  -2  883.87   54.63
  -9   4   2  852.97   54.72
  -9   4  -2  923.35   55.03
  -9   4   3    2.61    3.22
  -9   4  -3    4.72    3.48
   9  -4   3    2.52    4.98
   9  -4  -3    3.95    6.99
   9  -4   3   -6.32   12.50
  -9   4  -3    2.58    3.13
  -9   4   3    6.17    3.59
  -9   4  -4    1.34    3.25
   9  -4   4    2.78    6.02
   9  -4  -4    7.39    9.81
   9  -4   4    6.29   13.64
  -9   4  -4    1.27    3.34
  -9   4   4    6.34    3.74
  -9  -4   5  330.60   28.24
  -9   4   5  321.85   28.85
   9  -4   5  305.70   34.28
   9  -4  -5  308.21   36.28
   9  -4   5  265.58   42.76
  -9   4  -5  348.11   23.01
  -9   4   5  352.15   23.62
  -9   4  -5  313.68   22.86
  -9   4   5  278.32   40.03
  -9  -4   6  702.65   49.13
  -9   4   6  659.43   49.80
   9  -4   6  614.74   57.23
   9  -4  -6  679.76   58.55
   9  -4   6  689.00   69.70
  -9   4  -6  725.57   42.68
  -9   4   6  685.70   43.34
  -9   4  -6  630.56   42.45
  -9   4   6  605.03   63.59
  -9  -4   7 1065.98   67.92
  -9   4   7  961.48   68.42
   9  -4   7  987.47   79.64
   9  -4  -7 1059.17   77.24
   9  -4   7 1105.25   89.81
  -9   4  -7 1103.41   60.37
  -9   4   7  991.76   60.97
  -9   4  -7  866.91   59.86
  -9   4   7  783.06   79.65
  -9   4  -8    9.31    3.43
   9  -4   8    8.51    8.44
  -9  -4   8    6.66    6.93
  -9   4   8   13.47    8.52
  -9   4  -8   12.50    3.76
  -9   4   8    6.91    3.50
  -9  -4   9   82.00   12.58
  -9   4   9   71.29   12.72
  -9   4  -9   86.04    7.78
  -9   4  -9   62.02    7.44
  -9  -4  10  459.92   35.02
  -9   4  10  485.07   36.78
  -9  -4  11   12.15    6.08
  -9   4  11   18.85    6.99
  -9  -4  12   13.78    4.79
  -9   4  12   11.55    5.14
  -9  -4  13  467.11   31.23
  -9   4  13  450.34   31.82
  -9  -4  14  292.55   20.79
  -9   4  14  292.49   21.39
  -9  -4  15  267.23   18.68
  -9   4  15  274.19   19.26
  -9  -4  16   -1.51    2.08
  -9   4  16   -3.03    2.73
  -9  -4  17    1.69    1.42
  -9   4  17    1.43    1.61
  -9   5   0 1079.06   64.54
  -9   5   0 1019.23   64.03
   9  -5   1  350.60   34.99
   9  -5  -1  356.85   47.25
  -9   5   1  407.28   27.90
  -9   5  -1  417.76   27.84
  -9   5  -1  434.08   28.22
   9  -5   2   79.27   14.31
   9  -5  -2   63.57   18.44
   9  -5   2   59.56   20.82
  -9   5   2   79.31    8.67
  -9   5  -2   94.62    9.02
  -9   5   2   74.44    8.71
  -9   5  -2   96.03    9.59
   9  -5   3  513.09   46.52
   9  -5  -3  578.01   56.69
   9  -5   3  439.23   60.10
  -9   5   3  588.82   35.97
  -9   5  -3  571.82   35.69
  -9   5   3  503.78   35.49
  -9   5  -3  535.57   35.80
  -9   5  -4   49.69    7.01
   9  -5   4   64.16   14.13
   9  -5  -4   32.71   13.89
   9  -5   4   56.14   20.88
  -9   5  -4   63.49    7.38
  -9   5   4   57.17    7.37
  -9   5   4   61.32   19.97
  -9  -5   5  261.61   24.57
  -9   5   5  246.99   25.82
   9  -5   5  290.84   34.29
   9  -5  -5  281.43   34.63
   9  -5   5  242.26   39.52
  -9   5  -5  314.76   20.80
  -9   5   5  291.20   21.06
  -9   5  -5  275.61   20.77
  -9   5   5  319.51   43.76
  -9  -5   6  371.88   30.55
  -9   5   6  333.13   31.37
   9  -5   6  344.81   39.82
   9  -5  -6  391.77   40.68
   9  -5   6  383.53   46.74
  -9   5  -6  384.97   24.73
  -9   5   6  346.98   25.20
  -9   5  -6  345.58   25.08
  -9   5   6  310.39   44.82
  -9  -5   7  451.22   39.32
  -9   5   7  614.33   44.11
   9  -5   7  535.23   54.24
   9  -5  -7  541.82   50.05
   9  -5   7  506.71   55.39
  -9   5  -7  573.01   34.69
  -9   5   7  555.40   35.76
  -9   5  -7  496.74   35.00
  -9   5   7  546.60   58.98
  -9   5  -8   63.45    7.87
  -9  -5   8   48.93   10.29
  -9   5   8   64.08   13.32
   9  -5   8   36.80   14.47
   9  -5   8   39.55   14.91
  -9   5  -8   63.12    6.99
  -9  -5   9  343.61   27.48
  -9   5   9  329.44   28.76
  -9   5  -9  318.89   23.24
  -9  -5  10  114.81   12.91
  -9   5  10  127.85   14.94
  -9   5 -10   84.20    9.47
  -9  -5  11  290.94   21.21
  -9   5  11  305.81   22.69
  -9  -5  12   19.14    5.21
  -9   5  12   21.97    6.70
  -9  -5  13  146.44   12.81
  -9   5  13  157.28   13.78
  -9  -5  14   82.75    8.28
  -9   5  14   91.52    9.06
  -9  -5  15  141.92   10.86
  -9   5  15  140.48   11.37
  -9  -5  16    1.16    1.70
  -9   5  16   -1.08    2.14
  -9   6   0  121.50   11.56
  -9   6   0  127.10   11.46
  -9   6   1   52.01    7.00
  -9   6  -1   34.82    6.31
   9  -6   1   46.34   10.62
   9  -6  -1   12.45   13.70
   9  -6   1   70.05   24.89
  -9   6  -1   44.68    6.51
   9  -6   2  700.50   56.97
   9  -6  -2  653.94   69.56
   9  -6   2  617.78   73.32
  -9   6   2  702.51   44.99
  -9   6  -2  722.06   45.02
  -9   6   2  705.00   44.85
  -9   6  -2  720.32   45.40
  -9   6   2  662.26   69.96
   9  -6   3  751.77   63.58
   9  -6  -3  766.41   73.73
   9  -6   3  723.59   78.52
  -9   6   3  816.93   50.47
  -9   6  -3  822.71   50.38
  -9   6   3  765.43   50.19
  -9   6  -3  832.82   51.02
  -9   6   3  798.05   78.81
  -9  -6   4  159.30   17.03
   9  -6   4  147.65   23.41
   9  -6  -4  100.82   23.18
  -9   6   4  144.45   18.07
  -9   6   4  160.17   13.37
   9  -6   4   90.10   26.96
  -9   6  -4  174.57   13.46
  -9   6   4  176.71   13.89
  -9   6  -4  141.26   13.32
  -9   6   4  139.77   31.51
  -9   6  -5   31.12    5.82
   9  -6   5   23.10   10.27
  -9  -6   5   11.60    6.87
  -9   6   5   17.04    9.23
   9  -6  -5   25.01   11.70
   9  -6   5   16.21   12.68
  -9   6  -5   12.02    4.14
  -9   6   5   19.50    5.13
  -9   6   5   19.45   16.25
  -9   6   6  308.44   46.90
  -9  -6   6  335.57   30.36
  -9   6   6  356.19   33.50
   9  -6   6  418.67   45.11
   9  -6  -6  411.83   43.17
   9  -6   6  474.10   49.78
  -9   6  -6  440.34   26.47
  -9   6   6  333.48   26.38
  -9   6  -6  384.59   26.91
  -9   6  -7   43.75    7.13
   9  -6   7   18.55   11.88
  -9  -6   7   59.75   11.01
  -9   6   7   53.03   12.67
   9  -6  -7   52.28   14.36
   9  -6   7   52.29   16.10
  -9  -6   8  169.79   17.81
  -9   6   8  176.01   20.19
  -9   6  -8  191.03   15.62
  -9  -6   9  132.56   14.84
  -9   6   9  149.89   17.09
  -9   6  -9  149.70   13.23
  -9  -6  10  289.28   22.78
  -9   6  10  328.96   25.28
  -9   6 -10  279.38   21.73
  -9  -6  11  201.43   16.37
  -9   6  11  224.71   18.31
  -9   6 -11  172.42   15.64
  -9  -6  12  113.14    9.70
  -9   6  12  102.26   10.41
  -9  -6  13    2.71    2.84
  -9   6  13    2.78    3.74
  -9  -6  14  164.27   12.00
  -9   6  14  150.98   12.56
  -9  -6  15    1.54    1.89
  -9   6  15   -1.24    2.53
  -9   7   0  262.04   21.39
  -9   7   0  336.73   22.17
  -9   7   1   32.66    5.98
  -9   7  -1   29.20    5.71
   9  -7   1   32.14   10.46
   9  -7   1   22.09   18.50
  -9   7  -1   28.24    5.66
   9  -7   2  270.39   33.61
   9  -7  -2  347.82   49.91
   9  -7   2  410.82   54.71
  -9   7   2  378.72   25.55
  -9   7  -2  341.55   25.00
  -9   7   2  375.19   25.48
  -9   7  -2  362.03   25.72
  -9   7   2  420.83   51.81
   9  -7   3   75.70   16.89
  -9  -7   3  100.35   12.94
  -9   7   3  101.79   15.04
   9  -7   3   56.93   21.03
  -9   7   3  117.69   10.89
  -9   7  -3  115.90   10.68
  -9   7   3  117.45   10.91
  -9   7  -3   93.59   10.60
  -9   7   3  100.08   27.69
  -9  -7   4  247.04   22.85
  -9   7   4  305.61   27.80
   9  -7   4  201.90   30.33
  -9   7   4  268.05   19.73
   9  -7   4  331.94   43.40
  -9   7  -4  284.38   20.05
  -9   7   4  249.28   19.91
  -9   7  -4  265.06   20.33
  -9   7   4  220.23   42.00
  -9   7   5    7.21   12.75
  -9   7  -5   12.78    4.83
   9  -7   5   -8.64    9.36
  -9  -7   5    4.13    6.21
  -9   7   5   24.19   10.25
   9  -7   5    4.97    9.83
  -9   7   6   54.42   21.79
  -9   7  -6   32.95    6.90
   9  -7   6   32.90   13.94
  -9  -7   6   30.89    8.31
  -9   7   6   46.52   12.43
   9  -7   6   48.59   15.76
  -9   7  -7   17.52    5.59
  -9  -7   7   20.77    7.01
  -9   7   7   22.30    9.36
  -9   7  -8   20.24    5.59
  -9  -7   8   35.70    7.14
  -9   7   8   48.19   10.57
  -9   7  -9   31.46    6.42
  -9   7   9   36.99    6.52
  -9  -7   9   34.84    6.88
  -9   7   9   48.92    9.51
  -9  -7  10  606.48   40.77
  -9   7  10  695.70   43.76
  -9   7 -10  615.50   41.46
  -9   7 -11   -2.41    4.02
  -9  -7  11    0.62    2.91
  -9   7  11   -1.78    4.25
  -9   7 -12   11.34    4.23
  -9  -7  12   18.39    3.81
  -9   7  12   10.16    4.47
  -9  -7  13   46.32    5.23
  -9   7 -13   33.82    5.53
  -9   7  13   51.43    6.34
  -9   7  14   -0.43    2.36
   9  -8   0  175.34   36.86
  -9   8   0  166.90   14.27
  -9   8   0  134.95   27.32
  -9   8   1   48.63    7.44
  -9   8  -1   60.65    7.79
   9  -8   1   87.32   26.72
  -9   8  -1   64.51   18.37
  -9  -8   2  140.56   14.25
   9  -8   2   84.94   18.03
  -9   8   2  124.50   16.08
   9  -8   2   99.32   26.40
  -9   8   2  123.02   11.38
  -9   8  -2  118.21   11.62
  -9   8  -2   83.58   21.61
  -9   8   2  131.56   30.41
  -9  -8   3  121.77   14.32
   9  -8   3  150.59   24.17
  -9   8   3  129.49   18.03
   9  -8   3  204.80   34.80
  -9   8   3  128.95   12.27
  -9   8  -3  150.46   13.31
  -9   8  -3  145.54   26.14
  -9   8   3  115.54   30.27
  -9   8   4  221.64   42.37
  -9  -8   4  192.28   19.52
  -9   8   4  248.68   24.92
   9  -8   4  168.46   29.17
  -9   8   4  257.16   17.67
   9  -8   4  164.13   30.87
  -9   8  -4  205.43   17.47
  -9   8  -4  204.11   30.70
  -9  -8   5   80.97   11.52
  -9   8   5   61.60   13.59
  -9  -8   6  164.33   16.60
  -9   8   6  170.42   20.66
  -9   8  -6  215.27   16.74
  -9   8   7  263.76   20.01
  -9   8   7  261.20   23.35
  -9   8  -7  236.19   18.85
  -9   8  -8  260.61   18.53
  -9   8   8  298.80   21.25
  -9  -8   8  214.08   18.75
  -9   8   8  273.13   22.79
  -9   8  -8  227.38   19.67
  -9   8  -9   18.74    5.36
  -9   8   9   22.13    6.22
  -9   8  10  155.07   13.56
  -9   8 -10  117.57   12.52
  -9   8  11  206.99   15.81
  -9   8 -11  176.10   15.73
  -9   8  12  120.47   10.41
  -9   8 -12  111.49   10.86
  -9   8  13   70.25    6.81
  -9   8 -13   78.09    7.61
  -9   8 -14   64.76    5.78
   9  -9   0   73.24   25.04
  -9   9   0  123.66   11.55
  -9   9   0   78.93   22.63
  -9   9  -1   66.85    8.88
  -9   9   1   73.95   12.27
   9  -9   1   94.31   25.65
  -9   9   1   88.53    9.51
  -9   9  -1   78.01   21.03
  -9   9   2  234.17   17.91
  -9   9  -2  209.88   18.03
  -9   9   3  145.19   17.55
  -9   9   3  121.26   11.72
  -9   9  -3  132.82   12.73
  -9   9   4  126.73   17.62
  -9   9   4  163.72   13.58
  -9   9  -4  162.07   14.52
  -9   9  -5   24.45    6.01
  -9   9   5    7.54    6.32
  -9   9  -6  573.45   36.78
  -9   9   6  601.26   38.93
  -9   9   6  519.24   39.73
  -9   9  -6  528.97   37.35
  -9   9  -7   91.63    9.49
  -9   9   7  107.53   11.88
  -9   9  -7   75.84   10.11
  -9   9   7   87.23   11.60
  -9   9   8   96.36   10.76
  -9   9  -8  111.19   10.03
  -9   9   8  117.13   12.12
  -9   9  -8   82.43   10.34
  -9   9  -9   48.90    7.51
  -9   9   9   38.67    6.06
  -9   9 -10   -0.79    3.78
  -9   9 -11   11.90    4.25
  -9   9 -12    5.21    3.25
  -9   9 -13   35.68    4.62
  -9   9 -14  332.89   20.71
  -9  10   0   60.35    7.86
  -9  10   1  394.71   27.12
  -9  10  -1  380.73   27.34
  -9  10  -2  819.22   49.91
  -9  10   2  714.05   49.26
  -9  10   2  747.00   48.70
  -9  10  -2  813.28   49.73
  -9  10   3   10.00    4.27
  -9  10  -3    8.60    4.46
  -9  10  -3   12.80    4.80
  -9  10   3    5.39    4.53
  -9  10  -4   48.65    6.87
  -9  10   4   60.55    7.74
  -9  10  -5   62.47    8.56
  -9  10  -5   54.96    7.68
  -9  10   5   59.25    9.27
  -9  10  -6  410.13   27.95
  -9  10   6  382.03   29.39
  -9  10  -6  404.51   28.76
  -9  10   7  517.55   34.16
  -9  10  -7  501.60   34.80
  -9  10   7  592.96   37.91
  -9  10  -7  570.19   36.67
  -9  10  -8   62.95    8.04
  -9  10   8   68.73    8.92
  -9  10  -9    6.21    4.51
  -9  10 -10  241.67   18.34
  -9  10 -11    0.59    2.90
  -9  10 -12   32.37    4.69
  -9  10 -13  214.44   14.55
  -9  11   0  326.92   22.66
  -9  11   0  261.05   20.90
  -9  11  -1  258.51   19.90
  -9  11   1  244.17   18.87
  -9  11  -1  245.46   19.12
  -9  11   2   39.00    6.35
  -9  11  -2   38.33    7.00
  -9  11  -2   38.65    6.94
  -9  11   2   49.01    7.82
  -9  11  -3  329.85   23.08
  -9  11   3  288.24   22.93
  -9  11   3  274.57   21.27
  -9  11  -3  316.61   22.71
  -9  11  -4  160.29   14.62
  -9  11   4  169.46   15.46
  -9  11  -4  160.62   14.51
  -9  11  -5  135.48   12.49
  -9  11   5  120.54   13.38
  -9  11  -5  128.03   12.41
  -9  11  -6   92.04    9.99
  -9  11   6  102.95   11.73
  -9  11  -6  107.13   10.87
  -9  11   7  222.29   15.80
  -9  11  -7  221.80   16.39
  -9  11   7  194.66   17.68
  -9  11  -7  200.89   16.96
  -9  11  -8   24.52    5.69
  -9  11   8   35.40    5.93
  -9  11   8   27.20    4.32
  -9  11  -9   80.38    8.82
  -9  11 -10   89.80    8.70
  -9  11 -11  200.06   14.42
  -9  11 -12    2.15    2.22
  -9  11 -13   48.20    4.34
  -9  12   0   16.68    5.17
  -9  12   0   15.45    4.95
  -9  12   1   44.71    6.53
  -9  12  -1   42.16    6.41
  -9  12  -1   38.65    6.48
  -9  12  -2  391.49   27.06
  -9  12   2  359.59   26.87
  -9  12  -2  376.21   26.45
  -9  12  -3  646.56   43.50
  -9  12   3  652.86   43.87
  -9  12  -3  709.23   43.61
  -9  12  -4   41.05    6.92
  -9  12  -4   34.93    6.59
  -9  12   4   43.20    7.38
  -9  12  -5  191.03   16.35
  -9  12   5  237.22   18.33
  -9  12  -5  210.81   17.05
  -9  12   6  300.05   20.82
  -9  12  -6  293.01   21.03
  -9  12   6  308.04   22.66
  -9  12  -6  286.81   21.60
  -9  12   7   -0.51    2.65
  -9  12  -7    1.39    3.36
  -9  12  -7   -4.15    3.56
  -9  12   7   -4.40    4.63
  -9  12  -8   35.38    5.55
  -9  12   8   31.00    4.30
  -9  12  -9  136.92   11.21
  -9  12 -10  204.09   14.58
  -9  12 -11  404.22   25.39
  -9  12 -12   17.39    2.55
  -9  13   0   48.33    6.92
  -9  13  -1   66.11    8.13
  -9  13  -2  678.88   43.79
  -9  13   2  671.33   43.74
  -9  13  -2  685.60   43.41
  -9  13  -3   96.24    9.78
  -9  13   3   95.41   10.08
  -9  13  -3   72.56    8.74
  -9  13  -4  501.42   34.14
  -9  13   4  536.09   35.01
  -9  13  -4  533.92   34.44
  -9  13  -5   94.35    9.56
  -9  13   5  112.88   10.83
  -9  13  -5  102.10    9.88
  -9  13   6  317.54   21.18
  -9  13  -6  268.80   20.56
  -9  13   6  347.15   22.48
  -9  13  -6  313.33   21.63
  -9  13  -7   23.56    4.54
  -9  13   7   16.72    3.56
  -9  13  -8    0.49    2.59
  -9  13   8    3.55    2.38
  -9  13  -9   94.20    8.05
  -9  13 -10  947.82   56.09
  -9  13 -11    6.46    1.73
  -9  14   0  135.63   11.85
  -9  14  -1   85.80    8.86
  -9  14   1   85.17    8.42
  -9  14  -2   96.17    9.25
  -9  14   2   85.51    8.96
  -9  14  -3  385.74   26.62
  -9  14   3  416.17   27.11
  -9  14  -4  144.19   11.75
  -9  14   4  142.16   12.11
  -9  14   5  302.29   20.98
  -9  14  -5  297.13   20.47
  -9  14   5  305.05   21.26
  -9  14  -5  325.63   21.19
  -9  14   6  107.45    9.21
  -9  14  -6  106.54    9.27
  -9  14  -7    4.62    2.39
  -9  14   7    3.00    2.31
  -9  14  -8  105.12    8.30
  -9  14  -9  169.91   11.58
  -9  14 -10   64.73    5.10
  -9  15   0    4.43    2.80
  -9  15  -1   19.90    3.84
  -9  15  -1   10.71    3.03
  -9  15  -2   10.92    3.19
  -9  15  -2    7.95    3.04
  -9  15   2   11.45    3.34
  -9  15   3   21.23    4.39
  -9  15   4  259.25   17.96
  -9  15   5    6.43    2.68
  -9  15   6   68.56    6.28
  -9  15  -8    0.87    1.22
  -9  16   1  100.02    8.38
  -9  16   2    7.82    2.74
  -9  16   3   53.57    5.72
  -9  16  -3   66.12    5.41
  -9  16  -4    7.88    1.98
  -9  16   4    8.53    2.46
  -9  16  -5    5.51    1.60
  10   0   0  170.98   26.39
  10   0  -1   -3.63    6.42
  10   0   1    4.23    9.90
  10   0  -2 1296.63   95.64
  10   0  -3    3.26    6.45
  10   0  -4 1831.07  124.52
 -10   0   5    9.71    7.73
 -10   0   5   11.89    4.00
 -10   0   6  284.91   27.20
 -10   0  -6  311.38   21.23
 -10   0   6  308.49   22.03
 -10   0   7    5.32    9.41
 -10   0  -7   -1.64    3.06
 -10   0   7   -0.63    3.25
 -10   0   8  508.25   42.09
 -10   0  -8  593.23   35.56
 -10   0   8  545.36   35.52
 -10   0   9    1.57    8.55
 -10   0   9    3.64    2.42
 -10   0  10 1311.57   83.52
 -10   0  11   -2.20    6.44
 -10   0  12  494.67   34.02
 -10   0  13    0.72    4.01
 -10   0  14   81.03    8.17
 -10   0  15    0.44    2.59
 -10   0  16  430.54   26.63
  10  -1   0  381.93   42.73
  10  -1  -1  105.17   20.35
  10  -1   1  116.06   23.19
  10  -1  -2  264.86   31.93
  10  -1   2  228.91   35.30
  10  -1  -3 1307.39   95.53
  10  -1   3 1274.43  107.14
 -10   1  -3 1306.38   78.18
 -10   1   3 1285.62   78.77
  10  -1  -4  305.80   35.32
 -10   1  -4  345.38   24.03
 -10   1   4  372.61   25.14
 -10  -1   5  390.51   32.40
 -10   1  -5  414.01   26.55
 -10   1   5  366.95   26.81
 -10  -1   6  152.44   18.02
 -10   1  -6  140.40   11.58
 -10   1   6  133.12   12.14
 -10  -1   7   10.48    8.25
 -10  -1  -7   20.32    4.22
 -10  -1   7   24.94    4.85
 -10   1  -7   19.11    4.03
 -10   1   7   19.29    4.76
 -10  -1   8  136.15   17.00
 -10  -1  -8  130.27   10.61
 -10  -1   8  126.57   10.70
 -10   1  -8  132.15   10.65
 -10   1   8  124.40   10.84
 -10  -1   9  473.81   37.26
 -10  -1   9  484.06   30.93
 -10   1   9  504.12   31.21
 -10  -1  10  109.71   13.64
 -10  -1  11  637.03   43.29
 -10  -1  12  166.15   14.90
 -10  -1  13   25.12    5.73
 -10  -1  14   95.41    8.95
 -10  -1  15   45.32    5.20
 -10  -1  16  100.85    7.79
  10  -2   0  195.84   29.81
 -10   2   0  176.77   14.48
  10  -2  -1   15.93   11.14
  10  -2   1    4.82    8.53
 -10   2  -1    2.02    3.62
  10  -2  -2   22.21   11.09
  10  -2   2   48.37   17.29
 -10   2  -2   42.01    6.15
 -10   2   2   42.50    6.49
  10  -2  -3   10.46    7.58
 -10   2  -3   14.74    4.18
 -10   2   3    8.79    4.00
  10  -2  -4  228.46   29.50
 -10   2  -4  252.05   18.33
 -10   2   4  252.76   19.03
 -10  -2   5   15.77    8.16
  10  -2  -5   18.77   10.37
 -10   2  -5   11.42    3.78
 -10   2   5    9.49    4.24
 -10  -2   6   61.50   12.75
 -10   2  -6   75.20    7.76
 -10   2   6   78.23    8.59
 -10  -2   7    6.80    8.40
 -10   2  -7    9.84    3.31
 -10   2   7   16.35    4.30
 -10  -2   8   37.53   10.07
 -10   2  -8   53.85    6.08
 -10  -2  -8   52.24    6.09
 -10  -2   8   47.52    5.96
 -10   2   8   45.75    6.35
 -10  -2   9   -4.36    7.92
 -10  -2   9   -3.81    2.63
 -10   2   9   -4.45    3.31
 -10  -2  10  177.72   17.39
 -10  -2  11    2.01    5.63
 -10  -2  12    9.78    5.18
 -10  -2  13    9.19    4.01
 -10  -2  14  141.92   11.48
 -10  -2  15    6.34    2.55
 -10   2  15    4.21    2.70
 -10  -2  16   27.02    3.27
 -10   2  16   22.67    3.20
 -10   3   0   15.64    4.04
  10  -3   0    4.75    8.45
 -10   3   0   17.74    4.60
  10  -3  -1  202.21   31.00
 -10   3  -1  238.70   17.25
  10  -3   1  217.00   35.39
 -10   3  -1  241.01   17.92
 -10   3  -2   41.17    5.71
  10  -3  -2   55.21   14.99
  10  -3   2   41.12   17.40
 -10   3  -2   40.05    6.04
 -10   3   2   44.02    6.45
  10  -3  -3   58.77   15.26
 -10   3  -3   72.93    7.78
 -10   3  -3   90.98    8.86
 -10   3   3   95.75    9.36
  10  -3  -4   -3.46    6.13
  10  -3   4    6.77   10.38
 -10   3  -4   11.33    3.76
 -10   3   4    6.61    4.18
 -10  -3   5    9.28    7.74
 -10   3   5   -3.37    8.17
  10  -3   5   -6.88   12.18
 -10   3  -5    4.87    3.24
 -10   3   5    6.57    3.88
 -10   3   6  174.12   19.60
 -10  -3   6  140.79   17.38
 -10   3  -6  144.84   12.05
 -10   3   6  147.01   12.79
 -10  -3   7  341.28   30.06
 -10   3   7  336.55   30.92
 -10   3  -7  371.93   24.22
 -10   3   7  359.65   24.88
 -10  -3   8    1.54    7.31
 -10   3   8   -5.10    7.52
 -10   3  -8   -1.03    2.54
 -10   3   8    4.25    2.94
 -10  -3   9    1.33    5.99
 -10   3   9    7.47    7.59
 -10  -3  10   78.40   10.68
 -10   3  10   66.70   10.83
 -10  -3  11   51.97    8.29
 -10   3  11   57.00    8.85
 -10  -3  12   27.58    5.63
 -10   3  12   13.12    5.20
 -10  -3  13  165.00   13.35
 -10   3  13  172.70   13.95
 -10  -3  14   10.28    3.45
 -10   3  14    8.25    3.30
 -10  -3  15  127.12    9.43
 -10   3  15  119.66    9.53
 -10  -3  16    5.23    1.60
 -10   3  16    1.25    1.54
  10  -4   0  422.00   49.18
 -10   4   0  390.48   26.59
 -10   4   0  397.73   27.15
 -10   4   1  156.09   12.61
  10  -4  -1  156.34   28.10
  10  -4   1  140.75   29.62
 -10   4  -1  141.31   12.29
 -10   4  -1  145.24   12.59
  10  -4  -2   60.04   16.81
 -10   4  -2   57.21    6.81
 -10   4  -2   57.25    7.06
 -10   4   2   45.53    6.82
 -10   4  -3   21.80    4.23
  10  -4  -3    7.86    7.84
  10  -4   3   27.15   15.92
 -10   4  -3   21.53    4.70
 -10   4   3   14.48    4.37
 -10  -4   4  102.35   13.91
 -10   4   4  102.72   14.85
  10  -4  -4   83.88   18.25
  10  -4   4   61.79   22.82
 -10   4  -4  106.16    9.89
 -10   4  -4  147.70   11.21
 -10   4   4  120.89   11.16
 -10   4   4  118.04   25.28
 -10  -4   5  303.66   26.68
 -10   4   5  302.05   27.99
 -10   4  -5  290.68   21.02
 -10   4  -5  347.36   22.09
 -10   4   5  310.34   22.47
 -10  -4   6  115.16   15.85
 -10   4   6  153.83   18.22
 -10   4  -6  119.72   10.62
 -10   4  -6  163.81   12.04
 -10   4   6  129.65   12.09
 -10  -4   7   38.16   10.60
 -10   4   7   43.17   12.08
 -10   4  -7   50.58    6.10
 -10   4   7   43.34    6.56
 -10  -4   8   30.54    8.72
 -10   4   8   37.98   10.40
 -10   4  -8   34.03    5.10
 -10  -4   9   61.09   10.10
 -10   4   9   75.62   11.97
 -10  -4  10  132.09   13.67
 -10   4  10  136.20   14.87
 -10  -4  11  101.76   11.21
 -10   4  11  129.41   12.74
 -10  -4  12    2.61    3.51
 -10   4  12    0.75    4.06
 -10  -4  13   66.07    6.88
 -10   4  13   64.70    7.34
 -10  -4  14  161.63   11.82
 -10   4  14  158.37   12.23
 -10  -4  15    9.20    2.17
 -10   4  15    8.96    2.51
  10  -5   0 1267.87  107.05
 -10   5   0 1271.09   76.56
 -10   5   0 1262.96   76.69
 -10   5   1    4.67    3.78
 -10   5  -1    7.27    3.56
  10  -5  -1   -5.29    9.36
 -10   5  -1    0.68    3.35
 -10   5  -2   63.16    7.70
 -10   5  -2   76.93    8.31
 -10   5   2   87.19    8.74
  10  -5   3  552.91   70.65
 -10   5  -3  714.36   44.23
 -10   5  -3  743.01   44.59
 -10   5   3  681.58   44.56
 -10   5   3  562.07   66.56
 -10  -5   4  805.63   55.97
 -10   5   4  857.81   58.60
 -10   5  -4  780.99   51.01
 -10   5  -4  900.10   51.75
 -10   5   4  809.78   52.05
 -10  -5   5   63.64   11.03
 -10   5   5   52.25   12.42
 -10   5  -5   62.26    7.06
 -10   5  -5   69.40    7.41
 -10   5   5   52.92    7.56
 -10   5  -6    6.31    3.10
 -10  -5   6    1.46    6.46
 -10   5   6    5.53    7.99
 -10   5  -6    9.02    3.70
 -10   5   6    3.04    3.57
 -10   5  -7   25.13    4.44
 -10  -5   7   22.01    7.93
 -10   5  -7   35.31    5.06
 -10  -5   8  458.44   32.53
 -10   5   8  445.01   34.40
 -10   5  -8  407.76   27.51
 -10  -5   9  128.58   13.99
 -10   5   9  160.05   16.16
 -10  -5  10    5.86    4.33
 -10   5  10    3.17    4.95
 -10  -5  11  217.67   17.17
 -10   5  11  233.56   18.30
 -10  -5  12  448.10   30.12
 -10   5  12  493.56   31.32
 -10  -5  13    2.54    2.44
 -10   5  13    5.79    3.20
 -10  -5  14   22.94    3.23
 -10   5  14   25.51    3.78
 -10   6   0    8.30    3.78
 -10   6   0    0.70    3.40
 -10   6   1  193.14   14.73
 -10   6  -1  168.25   14.43
 -10   6  -1  177.50   14.56
 -10   6   2  543.79   33.28
 -10   6  -2  487.91   32.88
 -10   6  -2  492.20   32.89
 -10   6   2  472.28   32.97
 -10   6  -3   51.15    7.45
 -10  -6   3   83.88   11.73
 -10   6   3   71.06   12.85
 -10   6  -3   78.84    8.13
 -10   6   3   73.73    8.43
 -10  -6   4  979.22   65.56
 -10   6   4  925.62   67.93
 -10   6  -4  960.19   61.10
 -10   6  -4 1071.13   61.63
 -10   6   4 1010.54   62.05
 -10  -6   5  118.69   14.94
 -10   6   5  143.88   18.68
 -10   6  -5  123.34   11.27
 -10   6  -5  135.75   11.54
 -10   6   5  117.28   11.97
 -10   6  -6   22.34    4.54
 -10  -6   6   18.32    7.49
 -10   6   6    7.32    8.48
 -10  -6   7   95.87   12.28
 -10   6   7  110.49   15.23
 -10   6  -7  104.60    9.81
 -10  -6   8   97.05   11.06
 -10   6   8  113.62   14.00
 -10   6  -8   69.42    7.99
 -10  -6   9   86.96    9.88
 -10   6   9   90.84   11.81
 -10   6  -9   85.93    8.49
 -10  -6  10  586.28   38.69
 -10   6  10  628.18   40.69
 -10  -6  11   85.53    8.45
 -10   6  11   89.87    9.67
 -10  -6  12  193.11   13.99
 -10   6  12  204.15   15.08
 -10  -6  13   28.67    3.63
 -10   6  13   27.19    4.24
 -10   6  14    2.29    1.70
 -10   7   0    2.12    3.81
 -10   7   0    1.46    3.71
 -10   7  -1   54.83    7.41
 -10   7   1   63.49    7.49
 -10   7  -1   42.03    6.68
 -10  -7   2  355.27   28.84
 -10   7   2  366.81   31.51
 -10   7   2  369.63   25.57
 -10   7  -2  385.21   25.94
 -10   7  -2  384.24   25.94
 -10   7   2  351.53   25.82
 -10  -7   3  896.48   58.93
 -10   7   3  886.44   62.21
 -10   7  -3  879.73   55.23
 -10   7  -4    1.42    3.39
 -10  -7   4    7.69    5.78
 -10   7   4    1.86    7.54
 -10  -7   5  357.25   29.58
 -10   7   5  405.72   34.18
 -10   7  -5  408.36   27.10
 -10  -7   6  374.77   29.56
 -10   7   6  428.90   34.20
 -10   7  -6  411.43   27.52
 -10   7  -7    2.69    3.21
 -10  -7   7    3.72    4.11
 -10   7   7   -1.43    6.31
 -10   7  -8    5.86    3.60
 -10   7  -8   -1.66    3.36
 -10   7   8    2.24    4.03
 -10  -7   8    9.28    4.38
 -10   7   8    9.38    6.39
 -10  -7   9  274.04   19.35
 -10   7   9  295.49   21.64
 -10   7  -9  239.49   18.80
 -10  -7  10  290.03   18.81
 -10   7  10  325.64   20.89
 -10  -7  11  513.95   32.16
 -10   7  11  524.35   33.47
 -10   7  12   11.66    3.03
 -10  -8   0  104.56   12.85
 -10   8   0  100.78   10.19
 -10  -8   1   84.98   12.04
 -10   8   1  100.75   13.82
 -10   8   1   92.39    9.29
 -10   8  -1   81.21    9.17
 -10   8   2   32.19    5.59
 -10   8  -2   32.82    5.80
 -10  -8   2   30.70    8.19
 -10   8   2   31.26    9.71
 -10   8  -3   45.50    6.63
 -10  -8   3   24.25    7.46
 -10   8   3   29.36   10.10
 -10  -8   4  252.77   21.73
 -10   8   4  217.03   23.73
 -10   8  -4  274.20   19.49
 -10   8   5  141.04   17.31
 -10   8  -5  154.03   13.27
 -10   8  -6   22.18    4.98
 -10   8   6    7.93    4.56
 -10   8   6   19.80    7.70
 -10   8  -7   37.71    6.16
 -10   8  -7   36.55    5.64
 -10   8   7   50.57    7.65
 -10   8   7   39.92    8.25
 -10   8  -8   44.15    6.65
 -10   8  -8   59.17    6.52
 -10   8   8   46.62    7.08
 -10   8   8   50.27    8.20
 -10   8  -9   16.21    4.23
 -10   8   9   10.02    4.07
 -10   8  10  173.66   13.52
 -10   8 -10  178.31   13.63
 -10   8  11   61.27    5.63
 -10   8 -11   48.05    5.83
 -10   9   0   62.72   11.07
 -10   9   0   97.45    9.32
 -10   9   1  379.45   31.37
 -10   9  -1  414.51   30.68
 -10   9   1  422.79   27.88
 -10   9  -1  406.79   27.97
 -10   9   2   99.00   13.97
 -10   9   2  110.38   10.23
 -10   9  -2  102.00   10.33
 -10   9  -3    0.73    3.60
 -10   9   3    1.28    5.19
 -10   9  -4   18.34    5.04
 -10   9  -4   18.75    5.16
 -10   9   4   20.43    5.52
 -10   9   4   12.49    5.85
 -10   9  -5   47.25    6.71
 -10   9  -5   42.71    6.49
 -10   9   5   49.73    7.70
 -10   9   5   29.61    7.07
 -10   9  -6  272.37   18.64
 -10   9   6  251.89   19.95
 -10   9  -6  219.81   18.21
 -10   9  -7  565.81   35.69
 -10   9   7  623.24   38.01
 -10   9  -7  503.96   35.88
 -10   9  -8    7.08    3.67
 -10   9  -9   15.75    4.22
 -10   9 -10  117.43    9.98
 -10   9 -11    1.50    2.10
 -10  10   0  924.75   58.05
 -10  10   0  933.69   57.41
 -10  10  -1  134.52   12.79
 -10  10   1  144.11   12.35
 -10  10  -1  147.95   12.64
 -10  10  -2  149.31   13.28
 -10  10   2  156.96   13.54
 -10  10  -2  143.77   12.73
 -10  10  -3   14.88    4.99
 -10  10   3   17.28    5.39
 -10  10  -4    3.56    3.67
 -10  10  -4    2.87    3.70
 -10  10   4    3.43    4.22
 -10  10  -5  161.55   14.26
 -10  10   5  170.61   15.60
 -10  10  -5  197.77   14.82
 -10  10  -6  547.22   35.22
 -10  10   6  599.65   37.43
 -10  10  -6  509.29   35.34
 -10  10  -7   29.23    5.44
 -10  10  -7   34.62    5.00
 -10  10   7   23.08    5.64
 -10  10  -8  288.79   20.28
 -10  10  -9   48.90    5.93
 -10  10 -10    4.08    2.66
 -10  10 -11   46.10    4.51
 -10  11   0  712.48   44.82
 -10  11   0  684.57   43.84
 -10  11  -1  292.40   21.54
 -10  11   1  304.85   20.85
 -10  11  -1  281.65   20.83
 -10  11  -2    3.30    3.50
 -10  11  -2   12.51    3.66
 -10  11   2   14.72    4.26
 -10  11  -3   36.54    5.86
 -10  11  -3   30.00    5.99
 -10  11   3   39.64    6.73
 -10  11  -4  560.95   37.44
 -10  11   4  629.29   38.81
 -10  11  -4  563.73   37.32
 -10  11  -5   31.93    5.51
 -10  11  -5   30.09    5.53
 -10  11   5   27.27    6.09
 -10  11   6    4.11    2.39
 -10  11  -6    1.21    3.02
 -10  11  -6    4.24    3.15
 -10  11   6   -2.94    4.86
 -10  11  -7  321.04   21.93
 -10  11  -8  389.91   25.40
 -10  11  -9   14.40    3.31
 -10  11 -10    0.30    1.61
 -10  12   0  132.35   12.51
 -10  12   0  162.49   12.40
 -10  12  -1  134.28   12.45
 -10  12  -1  159.52   12.39
 -10  12  -2   24.54    4.88
 -10  12  -2   16.59    4.37
 -10  12   2    9.81    4.02
 -10  12  -3  145.89   12.37
 -10  12   3  148.95   12.84
 -10  12  -3  146.38   12.04
 -10  12  -4  152.86   12.86
 -10  12   4  164.18   13.76
 -10  12  -4  161.67   12.84
 -10  12   5   78.33    7.76
 -10  12  -5   88.79    8.47
 -10  12   5  100.73    9.68
 -10  12  -5  104.69    9.05
 -10  12  -6   27.10    4.40
 -10  12   6   22.02    3.39
 -10  12  -7   88.10    7.86
 -10  12  -8   32.44    3.98
 -10  12  -9   55.32    5.07
 -10  13   0   -3.45    3.38
 -10  13  -1    3.60    2.95
 -10  13  -1    1.13    2.83
 -10  13  -2  113.44    9.77
 -10  13   2  113.23    9.99
 -10  13  -2   99.96    9.24
 -10  13  -3  217.74   16.35
 -10  13   3  236.19   16.95
 -10  13  -3  236.13   16.42
 -10  13   4    1.26    2.43
 -10  13  -4    5.67    3.04
 -10  13   5   50.69    5.54
 -10  13  -5   78.21    6.72
 -10  13  -6   85.39    7.41
 -10  13  -7   40.45    4.36
 -10  13  -8    0.50    1.43
 -10  14   3   -1.89    2.25
 -10  14  -3   -0.38    2.02
 -10  14   4   72.67    6.63
 -10  14  -4   91.85    7.10
 -10  14  -5    0.90    1.68
 -10  14  -6   62.75    5.26
 -10  15   0   22.34    3.23
 -10  15   1  334.23   21.09
 -10  15   2   43.41    4.35
 -11   0   0    0.69    3.31
 -11   0  -1  356.61   24.71
 -11   0  -2    7.64    3.62
 -11   0   2    3.67    3.26
 -11   0  -3 1452.79   86.93
 -11   0   3 1460.37   87.78
 -11   0   4    4.59    6.51
 -11   0  -4    9.82    3.23
 -11   0   4    8.53    3.05
 -11   0   5  947.87   64.26
 -11   0  -5  951.59   57.66
 -11   0   5  943.79   58.38
 -11   0   6    8.00    7.35
 -11   0  -6    1.03    2.41
 -11   0   6    5.44    3.55
 -11   0  -7   88.88    7.95
 -11   0   7   85.15    8.09
 -11   0   8   -1.36    7.30
 -11   0  -8   -2.56    3.14
 -11   0   8   -0.86    3.19
 -11   0   9  594.45   41.35
 -11   0  10    2.75    4.87
 -11   0  11  921.22   57.30
 -11   0  12   -2.29    3.36
 -11   0  13   93.45    8.02
 -11   0  14    0.32    1.87
 -11   1   0  107.99   10.37
 -11   1  -1    3.92    3.28
 -11   1  -2  386.50   25.62
 -11   1   2  363.48   25.92
 -11   1  -3   14.40    3.54
 -11   1   3   21.60    4.34
 -11  -1   4 1467.46   87.28
 -11  -1  -4 1335.37   80.11
 -11  -1   4 1253.21   80.68
 -11   1  -4 1364.16   80.11
 -11   1   4 1351.76   80.99
 -11  -1   5    6.25    7.09
 -11  -1  -5   18.18    3.57
 -11  -1   5   11.25    3.14
 -11   1  -5   13.67    3.04
 -11   1   5   14.79    3.45
 -11  -1   6   92.73   13.76
 -11  -1  -6  101.04    8.47
 -11  -1   6   82.56    8.47
 -11   1  -6   87.00    8.15
 -11   1   6   80.34    8.58
 -11  -1   7    1.50    7.73
 -11  -1  -7   -0.94    3.01
 -11  -1   7   -0.51    3.18
 -11   1  -7   -1.89    2.96
 -11   1   7   -5.35    3.54
 -11  -1   8  136.49   15.50
 -11  -1  -8  144.61   10.88
 -11  -1   8  133.26   10.74
 -11   1  -8  137.91   10.86
 -11   1   8  139.28   11.07
 -11  -1   9   18.63    6.66
 -11  -1  10  680.96   44.72
 -11  -1  11   10.59    4.46
 -11  -1  12  328.57   22.39
 -11  -1  13    8.90    2.95
 -11  -1  14    0.30    1.61
 -11   2   0   82.35    8.89
 -11   2  -1    1.29    3.33
 -11   2  -2  271.34   19.59
 -11   2   2  277.15   20.19
 -11   2  -3  369.03   24.58
 -11   2   3  351.09   25.12
 -11  -2   4  134.61   15.98
 -11   2  -4  118.15   10.59
 -11   2   4  128.82   11.53
 -11  -2   5  127.61   17.07
 -11  -2   5  157.15   12.80
 -11   2  -5  153.05   12.02
 -11   2   5  142.92   12.60
 -11  -2   6  260.50   26.05
 -11  -2  -6  314.17   21.29
 -11  -2   6  319.51   21.75
 -11   2  -6  321.66   21.32
 -11   2   6  323.91   22.06
 -11  -2   7   32.69    9.61
 -11  -2  -7   39.15    5.26
 -11  -2   7   38.11    5.24
 -11   2  -7   43.28    5.30
 -11   2   7   46.80    5.92
 -11  -2   8   89.34   13.06
 -11  -2  -8  101.95    8.98
 -11  -2   8  110.82    9.00
 -11   2  -8  118.84    9.42
 -11   2   8  111.23    9.52
 -11  -2   9   76.58   10.42
 -11  -2  10  165.66   14.70
 -11  -2  11  308.01   21.85
 -11  -2  12   63.07    6.90
 -11  -2  13   29.82    4.16
 -11   2  13   32.64    4.45
 -11  -2  14   50.31    4.84
 -11   2  14   61.93    5.21
 -11   3   0  593.16   38.18
 -11   3  -1   35.84    5.77
 -11   3  -2   45.19    6.33
 -11   3   2   44.58    6.55
 -11  -3   3   46.99    9.88
 -11   3   3   38.91    9.73
 -11   3  -3   29.24    5.14
 -11   3   3   32.43    5.89
 -11  -3   4    8.58    6.94
 -11   3   4    7.79    7.92
 -11   3  -4    7.96    3.81
 -11   3   4    4.18    3.45
 -11  -3   5    7.27    7.08
 -11   3   5    3.20    7.38
 -11   3  -5   13.58    3.51
 -11   3   5   16.19    4.20
 -11  -3   6   18.56    8.05
 -11   3   6   14.23    8.55
 -11   3  -6   31.78    4.64
 -11   3   6   20.98    4.72
 -11  -3   7   28.85    7.95
 -11   3   7   33.58    9.10
 -11  -3  -7   25.34    4.34
 -11  -3   7   28.12    4.38
 -11   3  -7   29.01    4.56
 -11   3   7   35.72    5.40
 -11  -3   8  363.01   27.99
 -11   3   8  337.34   28.46
 -11  -3  -8  379.66   23.78
 -11  -3   8  369.82   23.56
 -11  -3   9    9.20    5.05
 -11   3   9   13.54    5.93
 -11  -3  10  161.32   14.00
 -11   3  10  167.71   14.65
 -11  -3  11    9.35    3.95
 -11   3  11   20.14    4.83
 -11  -3  12   55.36    5.99
 -11   3  12   50.85    6.25
 -11  -3  13    9.67    2.51
 -11   3  13    8.97    2.80
 -11   3  14   89.66    6.79
 -11   4   0  327.49   22.92
 -11   4  -1  158.08   12.98
 -11   4  -2    9.83    4.05
 -11   4   2    6.18    3.57
 -11  -4   3  101.24   13.56
 -11   4   3   93.18   14.58
 -11   4  -3  115.69   10.22
 -11   4   3  124.15   10.94
 -11  -4   4  266.38   23.99
 -11   4   4  275.84   25.36
 -11   4  -4  297.11   19.78
 -11   4   4  264.24   20.22
 -11  -4   5   10.95    7.48
 -11   4   5    6.43    7.40
 -11   4  -5   10.98    3.30
 -11   4   5    6.21    3.84
 -11  -4   6   18.27    7.69
 -11   4   6   34.01    9.67
 -11   4  -6   23.50    4.20
 -11   4   6   24.51    5.02
 -11  -4   7  270.78   22.60
 -11   4   7  252.19   23.47
 -11  -4  -7  262.69   18.33
 -11  -4   7  282.37   18.47
 -11  -4   8  288.57   22.33
 -11   4   8  243.28   22.70
 -11  -4   8  293.35   18.58
 -11  -4   9    1.57    4.35
 -11   4   9    2.85    4.89
 -11  -4  10   22.50    4.96
 -11   4  10   14.94    4.88
 -11  -4  11   51.52    6.14
 -11   4  11   56.58    6.75
 -11  -4  12  133.57   10.19
 -11   4  12  133.21   10.64
 -11  -4  13  125.45    9.42
 -11   4  13  150.30   10.05
 -11   5   0   24.14    4.88
 -11   5  -1   93.44    9.27
 -11  -5   2   97.76   12.87
 -11   5   2   86.31   13.59
 -11   5  -2   97.60    8.74
 -11   5  -2   97.91    9.43
 -11   5   2  100.02    9.78
 -11  -5   3   65.51   10.84
 -11   5   3   63.14   12.06
 -11   5  -3   49.05    5.71
 -11   5  -3   52.91    6.67
 -11   5   3   53.64    7.10
 -11  -5   4  505.97   35.58
 -11   5   4  499.21   37.59
 -11   5  -4  421.99   29.47
 -11   5  -4  511.40   31.06
 -11   5   4  495.86   31.78
 -11  -5   5   97.85   13.26
 -11   5   5   72.22   12.87
 -11   5  -5   88.83    8.51
 -11  -5   6    4.54    5.50
 -11   5   6   -1.48    6.68
 -11  -5   7   52.53    8.71
 -11   5   7   54.84   10.10
 -11  -5   8    4.83    4.39
 -11   5   8   -1.05    5.26
 -11  -5   9   54.54    6.64
 -11   5   9   50.64    7.40
 -11  -5  10  254.32   17.51
 -11   5  10  238.70   18.20
 -11  -5  11   20.62    3.45
 -11   5  11   15.94    3.93
 -11  -5  12   50.68    4.93
 -11   5  12   63.89    5.76
 -11   6   0  430.54   28.95
 -11  -6   1  174.13   16.39
 -11   6   1  134.51   16.42
 -11   6  -1  126.62   11.68
 -11   6  -2    8.89    3.14
 -11  -6   2    8.65    5.90
 -11   6   2   14.11    7.73
 -11   6  -2    6.34    3.41
 -11   6   2   12.70    4.44
 -11  -6   3  950.69   58.39
 -11   6   3  973.72   61.27
 -11   6  -3  817.65   52.73
 -11  -6   4  119.64   14.17
 -11   6   4  156.56   17.95
 -11   6  -4  131.02   10.55
 -11  -6   5  429.07   30.98
 -11   6   5  438.14   33.94
 -11   6  -5  404.72   26.61
 -11  -6   6   49.49    8.15
 -11   6  -6   50.85    5.56
 -11  -6   7    3.95    4.37
 -11   6   7    5.56    5.66
 -11  -6   8   57.28    7.26
 -11   6   8   63.26    8.86
 -11  -6   9  403.10   26.96
 -11   6   9  436.07   28.54
 -11  -6  10   15.64    3.07
 -11   6  10   17.95    3.96
 -11  -6  11  370.54   24.01
 -11   6  11  422.97   25.01
 -11  -7   0   81.30   11.67
 -11   7   0   65.82   12.04
 -11  -7   1  118.84   14.58
 -11   7   1  129.41   16.19
 -11   7  -1  123.92   10.50
 -11  -7   2  182.50   18.34
 -11   7   2  194.36   20.36
 -11   7  -2  190.81   14.31
 -11   7  -3   18.47    3.96
 -11  -7   3   12.94    6.31
 -11   7   3   14.17    7.93
 -11  -7   4  902.12   59.94
 -11   7   4  880.15   62.31
 -11   7  -4  960.38   56.41
 -11  -7   5   61.02    8.71
 -11   7   5   57.39   10.53
 -11   7  -5   63.65    6.65
 -11   7  -6    1.85    2.42
 -11   7  -6    1.58    2.95
 -11   7   6   -0.73    4.30
 -11  -7   6    3.68    3.85
 -11   7   6   -2.16    5.32
 -11   7  -7   29.71    4.32
 -11   7  -7   37.69    5.07
 -11   7   7   49.61    6.40
 -11  -7   7   37.17    5.66
 -11   7   7   37.95    7.33
 -11  -7   8   97.77    8.48
 -11   7   8   90.21    9.53
 -11   7   9   11.47    3.53
 -11   7  10  304.79   19.76
 -11   8   0   12.31    7.00
 -11   8   1   35.01   10.01
 -11   8  -1   60.32    9.83
 -11   8  -1   59.03    6.64
 -11   8   2  315.27   27.20
 -11   8  -2  349.75   26.29
 -11   8  -2  336.08   22.72
 -11   8   3  160.56   17.79
 -11   8  -3  203.06   14.50
 -11   8  -4   50.55    6.14
 -11   8   4   58.80    7.51
 -11   8   4   35.01    7.85
 -11   8  -4   51.62    6.17
 -11   8  -5   10.15    3.28
 -11   8  -5    3.89    3.12
 -11   8   5    2.28    4.16
 -11   8   5    7.85    5.13
 -11   8  -6  262.07   18.65
 -11   8   6  308.01   20.73
 -11   8   6  280.03   19.99
 -11   8  -6  243.32   18.18
 -11   8   7   81.22    7.99
 -11   8  -7   83.17    7.52
 -11   8  -8   15.21    3.02
 -11   9   0 1069.59   65.30
 -11   9  -1   84.23    8.83
 -11   9  -1   85.75    8.33
 -11   9  -2    5.93    3.19
 -11   9  -2   10.62    3.69
 -11   9   2    4.91    3.37
 -11   9  -3   86.70    8.82
 -11   9   3   91.64    9.74
 -11   9  -3   88.48    8.37
 -11   9  -4   35.63    5.20
 -11   9  -4   30.90    5.10
 -11   9   4   35.77    6.34
 -11   9  -5   45.03    5.46
 -11   9  -5   39.73    5.50
 -11   9   5   47.20    6.94
 -11   9  -6  190.42   13.92
 -11   9  -7   40.71    5.03
 -11   9  -8  256.67   16.91
 -11  10   0  274.56   19.83
 -11  10  -1  600.32   38.35
 -11  10  -2   13.25    3.44
 -11  10  -2    5.95    3.24
 -11  10   2    7.40    4.02
 -11  10  -3   10.48    3.39
 -11  10  -3    6.79    3.16
 -11  10   3    6.22    3.75
 -11  10  -4  236.82   16.74
 -11  10   4  262.50   18.32
 -11  10  -4  210.39   16.17
 -11  10  -5  181.79   13.35
 -11  10  -6    6.53    2.50
 -11  10  -7  462.61   28.66
 -11  10  -8  132.06    9.34
 -11  11   0  465.38   30.33
 -11  11  -1   53.26    6.36
 -11  11  -2   19.03    3.98
 -11  11   2   24.01    4.66
 -11  11  -3    9.74    3.01
 -11  11  -4    5.41    2.72
 -11  11  -5   71.69    6.51
 -11  11  -6  231.33   15.36
 -11  11  -7   27.49    3.18
 -12   0   0  557.08   35.70
 -12   0  -1    1.72    2.58
 -12   0   2  366.56   27.93
 -12   0  -2  331.00   22.34
 -12   0   2  313.15   22.67
 -12   0   3   10.90    7.13
 -12   0  -3    3.07    2.31
 -12   0   3   -4.87    3.73
 -12   0   4   13.71    7.13
 -12   0  -4   16.29    3.74
 -12   0   4   17.74    4.03
 -12   0   5   -1.33    6.24
 -12   0  -5    1.33    2.41
 -12   0   5    4.10    2.76
 -12   0   6   14.56    6.67
 -12   0  -6   12.74    3.10
 -12   0   6   17.52    3.75
 -12   0   7   -1.03    4.92
 -12   0   8  167.60   14.95
 -12   0   9   -0.67    3.80
 -12   0  10  599.07   37.58
 -12   0  11    1.53    2.05
 -12   0  12   38.28    3.86
 -12  -1   0   51.37    6.14
 -12   1   0   50.14    6.01
 -12  -1  -1  103.19    9.69
 -12   1  -1  114.52    9.80
 -12  -1   2  136.11   15.21
 -12  -1  -2  138.71   10.71
 -12  -1   2   99.77   10.21
 -12   1  -2  122.86   10.24
 -12   1   2  123.98   10.85
 -12  -1   3  148.97   16.82
 -12  -1  -3  144.39   11.78
 -12  -1   3  154.72   12.51
 -12   1  -3  164.39   12.04
 -12   1   3  138.72   12.24
 -12  -1  -4   38.22    5.28
 -12  -1   4   32.50    5.32
 -12   1  -4   37.81    5.16
 -12   1   4   41.08    5.91
 -12  -1   5    1.31    6.33
 -12  -1  -5    0.89    2.33
 -12  -1   5   -3.50    2.87
 -12   1  -5    0.44    2.39
 -12   1   5    4.19    2.96
 -12  -1   6   36.76    8.66
 -12  -1  -6   45.43    5.12
 -12   1  -6   41.60    5.08
 -12   1   6   59.81    5.99
 -12  -1   6   44.00    5.30
 -12  -1   7  193.40   17.34
 -12  -1   8    9.04    4.74
 -12  -1   9   22.45    4.78
 -12  -1  10   62.05    6.75
 -12  -1  11   46.51    5.09
 -12  -2   0  422.80   28.93
 -12   2   0  454.64   28.94
 -12  -2  -1   -2.36    3.42
 -12   2  -1   -2.22    3.29
 -12  -2   2  178.23   17.16
 -12  -2  -2  149.76   12.26
 -12  -2   2  157.25   12.83
 -12   2  -2  154.30   12.12
 -12   2   2  152.53   12.69
 -12  -2   3    1.30    6.41
 -12  -2  -3    0.53    2.55
 -12  -2   3   -0.59    2.91
 -12   2  -3    1.98    2.40
 -12   2   3    1.82    3.08
 -12  -2   4   57.14   10.58
 -12   2  -4   52.84    6.04
 -12  -2  -4   53.76    6.13
 -12  -2   4   48.37    6.19
 -12   2   4   55.82    6.69
 -12  -2   5    7.46    6.14
 -12  -2  -5    9.37    2.97
 -12  -2   5   11.54    3.49
 -12   2  -5   11.36    3.08
 -12   2   5    3.24    2.95
 -12  -2   6  661.40   47.39
 -12  -2  -6  696.28   43.13
 -12  -2   6  750.16   43.41
 -12   2  -6  670.92   43.12
 -12   2   6  767.00   43.98
 -12  -2   7   -0.93    4.66
 -12  -2   8   77.76    9.00
 -12  -2   9    4.69    3.53
 -12  -2  10    7.16    2.83
 -12   2  10    6.24    3.17
 -12  -2  11    2.93    1.85
 -12   2  11    3.15    1.99
 -12  -3   0   23.48    4.89
 -12   3   0   43.83    5.72
 -12  -3   1  990.39   57.64
 -12   3   1 1010.47   58.89
 -12  -3  -1  776.86   52.33
 -12   3  -1  828.89   52.22
 -12  -3   2   29.35    7.50
 -12   3   2   18.86    7.13
 -12  -3  -2   17.17    4.13
 -12  -3   2   15.82    4.31
 -12   3  -2   22.34    4.18
 -12   3   2   19.39    4.49
 -12  -3   3   26.04    7.45
 -12   3   3    8.18    7.33
 -12  -3  -3   17.19    4.01
 -12  -3   3   18.97    4.39
 -12   3  -3   25.68    4.08
 -12   3   3   25.62    4.88
 -12  -3   4   46.41    9.12
 -12   3   4   35.01    9.27
 -12  -3  -4   41.58    5.37
 -12  -3   4   40.31    5.43
 -12   3  -4   41.60    5.11
 -12   3   4   33.37    5.51
 -12  -3   5  295.12   24.98
 -12   3   5  279.43   25.62
 -12  -3  -5  302.79   21.05
 -12  -3   5  351.91   21.61
 -12   3  -5  327.00   21.24
 -12   3   5  332.56   22.15
 -12  -3   6   30.50    6.88
 -12   3   6   23.32    7.35
 -12  -3  -6   23.70    3.73
 -12  -3   6   23.31    3.77
 -12  -3   7  985.32   60.96
 -12   3   7  963.37   61.63
 -12  -3   8   40.53    6.42
 -12   3   8   44.37    7.00
 -12  -3   9   66.65    7.16
 -12   3   9   72.89    7.71
 -12  -3  10    9.50    2.68
 -12   3  10    5.15    2.58
 -12  -3  11   90.72    6.66
 -12   3  11   77.89    6.72
 -12  -4   0  711.10   45.64
 -12   4   0  648.21   41.72
 -12   4   1  124.12   14.26
 -12   4  -1  106.76    9.96
 -12  -4   2  360.91   27.26
 -12   4   2  338.26   27.79
 -12   4  -2  324.77   22.66
 -12   4   2  348.93   23.44
 -12  -4   3  139.65   15.25
 -12   4   3  150.43   16.58
 -12  -4   3  140.77   11.74
 -12   4  -3  160.28   11.76
 -12   4   3  131.27   11.97
 -12  -4   4    6.70    5.84
 -12   4   4   -7.95    7.03
 -12  -4  -4   -0.50    2.50
 -12  -4   4    1.98    2.56
 -12   4  -4    0.47    2.37
 -12  -4   5   52.90    8.97
 -12   4   5   72.12   10.73
 -12  -4  -5   65.77    6.75
 -12  -4   5   82.72    7.08
 -12  -4   6  877.26   57.17
 -12   4   6  954.84   58.85
 -12  -4  -6  845.02   54.06
 -12  -4   6  975.74   54.25
 -12  -4   7  114.49   11.08
 -12   4   7  117.92   11.74
 -12  -4   8  189.13   13.92
 -12   4   8  168.21   14.27
 -12  -4   9   76.26    6.95
 -12   4   9   67.81    7.22
 -12  -4  10   60.68    5.63
 -12   4  10   72.05    6.22
 -12  -5   0   32.46    7.71
 -12   5   0   36.68    9.47
 -12  -5   1  152.40   14.86
 -12   5   1  143.50   16.14
 -12  -5  -1  123.62   13.53
 -12  -5   2  443.63   32.76
 -12   5   2  458.67   34.71
 -12  -5   3   99.68   12.11
 -12   5   3  108.21   14.00
 -12  -5   4   33.18    7.15
 -12   5   4   30.10    8.36
 -12  -5   4   33.24    4.63
 -12  -5   5    9.99    4.86
 -12   5   5    4.32    5.43
 -12  -5  -5    8.72    2.88
 -12  -5   5    9.47    2.73
 -12  -5   6  300.32   22.15
 -12   5   6  324.77   23.72
 -12  -5   7  151.08   12.22
 -12   5   7  150.11   13.09
 -12  -5   8    8.60    2.73
 -12   5   8    4.26    2.85
 -12  -5   9    0.29    1.60
 -12   5   9   -1.17    1.95
 -12  -6   0  235.49   20.28
 -12   6   0  266.75   22.57
 -12  -6   1  138.76   14.16
 -12   6   1  130.34   15.11
 -12  -6  -1  121.48   13.12
 -12   6  -1  148.67   15.28
 -12  -6   2  450.13   34.52
 -12   6   2  480.73   36.66
 -12  -6  -2  521.47   34.30
 -12   6  -2  548.79   36.38
 -12  -6   3   75.94   10.04
 -12   6   3   74.99   11.43
 -12  -6   4   67.13    8.77
 -12   6   4   81.18   10.85
 -12  -6   5  193.20   14.30
 -12   6   5  161.98   15.22
 -12  -6  -5  153.91   12.07
 -12  -6   6   51.39    6.23
 -12   6   6   56.60    7.24
 -12  -6   7   57.26    5.79
 -12   6   7   62.30    6.75
 -12   6   8   39.93    4.54
 -12  -7   0  261.31   21.33
 -12   7   0  313.38   23.71
 -12  -7   1  -10.81    5.94
 -12   7   1   -6.48    6.69
 -12  -7  -1   -5.44    5.47
 -12   7  -1   -2.03    5.96
 -12   7   2    2.03    5.96
 -12   7  -2    7.39    5.55
 -12   7  -3  387.03   24.86
 -12   7   3  384.03   25.98
 -12   7   3  343.64   27.11
 -12   7  -3  397.83   27.38
 -12   7  -4  172.85   13.18
 -12   7   4  184.59   15.12
 -12   7  -4  188.75   15.08
 -12   7   5   60.74    7.11
 -12   7  -5   64.39    7.24
 -12   8   0  110.82    9.89
 -12   8  -1   84.89    8.07
 -12   8  -2    5.82    2.79
 -12   8   2    1.79    2.99
 -13   0   0    1.02    5.05
 -13   0   0   -4.06    3.14
 -13   0   1   48.37    8.45
 -13   0  -1   38.35    7.59
 -13   0  -1   30.94    4.51
 -13   0   2   -2.11    5.59
 -13   0  -2   -0.41    2.66
 -13   0   2   -3.57    2.88
 -13   0   3   58.81    9.31
 -13   0   4   -3.68    4.47
 -13   0   5   13.99    4.68
 -13   0   6    2.51    3.47
 -13   0   7  121.36   10.06
 -13   0   8   -0.70    1.88
 -13  -1   0   88.80   10.87
 -13  -1   0   66.06    7.21
 -13   1   0   94.76    7.92
 -13  -1   1   31.19    7.29
 -13  -1  -1   27.87    6.62
 -13  -1  -1   27.59    4.21
 -13   1  -1   39.87    4.65
 -13  -1  -2   97.37   10.46
 -13  -1   2   73.85   10.39
 -13  -1  -2   70.29    6.98
 -13  -1   2   75.95    7.20
 -13   1  -2   85.43    7.32
 -13   1   2   71.56    7.25
 -13  -1   3   36.05    7.39
 -13  -1   4  107.21   11.42
 -13  -1   5   28.60    5.92
 -13  -1   6  330.89   22.85
 -13  -1   7   27.68    4.31
 -13  -1   8   19.01    2.97
 -13  -2   0   94.50    8.84
 -13   2   0  102.73    9.10
 -13  -2   1  549.89   34.54
 -13  -2  -1  522.57   33.78
 -13  -2  -1  439.52   30.42
 -13   2  -1  498.69   30.71
 -13  -2   2   50.84    8.33
 -13  -2  -2   47.45    7.33
 -13  -2   3   17.75    5.86
 -13  -2   4  125.64   11.90
 -13   2   4  115.35   12.25
 -13  -2   5  268.43   19.08
 -13   2   5  242.06   19.37
 -13  -2   6   28.76    4.84
 -13   2   6   31.10    5.26
 -13  -2   7  569.89   34.55
 -13   2   7  548.62   34.77
 -13  -3   0 1951.29  121.42
 -13   3   0 2178.05  124.06
 -13  -3   1   48.50    7.64
 -13   3   1   51.23    8.62
 -13  -3  -1   62.34    7.78
 -13   3  -1   65.90    9.52
 -13  -3   2    8.39    4.99
 -13   3   2    7.38    5.45
 -13  -3  -2    8.64    4.70
 -13   3  -2    4.08    5.35
 -13  -3   3    7.78    4.74
 -13   3   3    8.59    5.50
 -13  -3  -3    8.52    4.13
 -13   3  -3   11.57    5.68
 -13  -3   4  402.89   27.88
 -13   3   4  427.55   29.22
 -13  -3   5   46.37    5.89
 -13   3   5   41.26    6.42
 -13  -3   6  210.85   15.03
 -13   3   6  219.45   15.78
 -13   3   7   16.88    3.14
 -13  -4   0    5.01    3.69
 -13   4   0   -1.06    5.39
 -13   4   1  397.97   28.22
 -13  -4  -1  384.08   25.62
 -13   4  -1  429.49   28.65
 -13  -4   2   -1.38    4.27
 -13   4   2    5.85    5.45
 -13  -4  -2    3.70    3.36
 -13   4  -2    2.95    5.36
 -13  -4   3    4.93    3.24
 -13   4   3    4.28    4.55
 -13  -4  -3    6.05    3.28
 -13   4  -3    6.36    4.90
 -13  -4   4   10.23    3.31
 -13   4   4   14.03    4.60
 -13  -4  -4   10.06    3.19
 -13   4  -4    6.55    4.73
 -13  -4   5  108.68    8.50
 -13   4   5   92.08    9.03
 -13  -4  -5   87.72    8.03
 -13   4  -5  115.11   10.65
 -13   4   6    9.33    2.85
 -13   4  -6    9.32    3.57
 -13  -5   0   87.83    8.64
 -13   5   0  108.03   11.71
 -13  -5   1   -1.05    3.35
 -13   5   1    0.88    5.17
 -13  -5  -1   -4.10    3.42
 -13   5  -1    2.70    5.29
 -13  -5   2   33.85    4.71
 -13   5   2   36.12    6.39
 -13  -5  -2   22.63    4.34
 -13   5  -2   30.20    6.60
 -13  -5   3   21.14    3.53
 -13   5   3   25.28    5.12
 -13  -5  -3   18.98    3.44
 -13   5  -3   28.33    5.58
 -13   5   4   61.96    6.75
 -13   5  -4   54.68    7.02
   0   0   0    0.00    0.00


TITL U6-Pr in Pnnm
REM Pnnm (#58 in standard setting)
CELL 1.54184  10.973969  17.590173  19.009358  90.0000  90.0000  90.0000
ZERR   16.00   0.000135   0.000212   0.000237   0.0000   0.0000   0.0000
LATT  1
SYMM -x,-y, z
SYMM -x+1/2, y+1/2,-z+1/2
SYMM  x+1/2,-y+1/2,-z+1/2
SFAC C H N O
UNIT 176.00 160.00 16.00 16.00
TREF
HKLF 4
END
_computing_structure_solution     'SHELXT 2018/2 (Sheldrick, 2018)'
;
_shelx_hkl_checksum                16441
_shelx_fab_file
;
0 0 2 71.6111 -11.8642
0 0 4 -6.2462 -28.8810
0 0 6 7.7394 -38.4064
0 0 8 7.2819 -34.8286
0 0 10 -6.8437 -23.0725
0 0 12 0.2307 -26.4245
0 0 14 4.3953 -31.7079
0 0 16 3.2168 -20.1058
0 0 18 3.0720 -15.7512
0 0 20 2.2467 -20.7729
0 0 22 1.0265 -17.0782
0 1 1 -115.3952 -4.1195
0 1 3 -17.1307 12.4885
0 1 5 6.8573 23.5475
0 1 7 -10.6247 24.9639
0 1 9 1.8496 18.5543
0 1 11 5.4541 13.8809
0 1 13 -3.3452 20.3148
0 1 15 -4.0980 17.1752
0 1 17 -1.9551 9.9634
0 1 19 -1.7837 11.7338
0 1 21 -2.6444 14.2545
0 2 0 104.7618 12.2477
0 2 2 50.3507 3.2586
0 2 4 -11.0515 -7.4125
0 2 6 -3.2636 -8.9806
0 2 8 4.4262 -7.3946
0 2 10 -6.2710 -3.7813
0 2 12 -2.8297 -4.8377
0 2 14 5.2751 -6.3650
0 2 16 2.0722 -3.5364
0 2 18 -1.8986 -2.8960
0 2 20 2.2237 -3.7184
0 2 22 5.4082 -8.3225
0 3 1 -54.8684 -7.6848
0 3 3 -3.7457 -3.2505
0 3 5 18.1988 -1.1252
0 3 7 2.8939 -2.5933
0 3 9 0.3906 -3.6522
0 3 11 7.1402 -3.5952
0 3 13 -0.6572 -2.9466
0 3 15 -5.2112 -3.0812
0 3 17 3.2836 -1.8346
0 3 19 3.3581 -3.1599
0 3 21 -6.7308 -0.1414
0 3 23 -7.8862 6.1237
0 4 0 28.0923 1.8165
0 4 2 13.0366 4.0838
0 4 4 -14.8905 4.2648
0 4 6 -17.4134 4.4777
0 4 8 -1.1249 5.9982
0 4 10 -2.4120 5.5978
0 4 12 -5.5093 4.6691
0 4 14 3.5691 4.7069
0 4 16 1.3852 3.6972
0 4 18 -7.2512 3.6891
0 4 20 0.9555 4.0297
0 4 22 11.1240 -1.7327
0 5 1 -3.4580 0.8170
0 5 3 3.4406 -2.3398
0 5 5 19.4852 -2.1478
0 5 7 11.1729 -2.8933
0 5 9 -2.5097 -3.4720
0 5 11 3.5808 -2.5139
0 5 13 2.6542 -1.6446
0 5 15 -3.8643 -1.4527
0 5 17 3.3174 -2.3621
0 5 19 5.3519 -2.3621
0 5 21 -7.2759 -0.2759
0 5 23 -9.3183 2.0841
0 6 0 -7.9216 -2.7747
0 6 2 -1.2058 -0.6324
0 6 4 -8.2101 0.0088
0 6 6 -17.0242 -0.3770
0 6 8 -0.9341 0.2642
0 6 10 3.1315 -0.1786
0 6 12 -4.3812 -0.6078
0 6 14 0.4865 -1.7392
0 6 16 1.4913 -0.1397
0 6 18 -4.4544 0.9194
0 6 20 1.0350 -0.6601
0 6 22 7.8654 -0.8043
0 7 1 5.4179 0.8683
0 7 3 -1.1248 0.3101
0 7 5 10.9684 1.0281
0 7 7 7.8099 0.9576
0 7 9 -4.8023 1.1425
0 7 11 0.1632 1.1678
0 7 13 2.4184 1.5395
0 7 15 -1.3858 1.6679
0 7 17 0.8118 -0.1298
0 7 19 0.1765 0.5297
0 7 21 -4.0769 0.4039
0 8 0 -3.2929 0.3305
0 8 2 1.6799 0.2976
0 8 4 -1.4809 0.3471
0 8 6 -8.1520 -0.6772
0 8 8 -0.6976 -0.3839
0 8 10 2.7364 -0.3580
0 8 12 -0.8266 -0.2218
0 8 14 -0.6206 -0.4236
0 8 16 0.0801 0.0343
0 8 18 1.3173 -0.0441
0 8 20 3.3716 0.1797
0 8 22 1.2384 0.5857
0 9 1 -2.3384 -0.1453
0 9 3 -1.1573 -0.9375
0 9 5 2.5687 -0.2601
0 9 7 4.6438 0.3810
0 9 9 1.3746 -0.6693
0 9 11 -1.9916 -0.5100
0 9 13 0.3364 -0.2870
0 9 15 1.1795 -0.6113
0 9 17 -1.8827 -0.4179
0 9 19 -4.0007 0.3558
0 9 21 -2.1912 -0.2882
0 10 0 5.7358 -0.0684
0 10 2 1.7363 -0.2189
0 10 4 -0.2839 0.2033
0 10 6 -2.1167 -0.7084
0 10 8 -6.6197 -0.0901
0 10 10 -0.3492 0.5356
0 10 12 2.4443 -0.2138
0 10 14 -2.0057 -0.2967
0 10 16 1.2946 0.4165
0 10 18 4.0539 -0.4331
0 10 20 3.1686 -2.2062
0 11 1 -5.1563 0.4547
0 11 3 -0.1839 0.9855
0 11 5 0.0949 0.9454
0 11 7 5.6160 0.9728
0 11 9 5.3873 0.4825
0 11 11 -2.4092 0.7931
0 11 13 0.2205 1.0833
0 11 15 0.0401 1.1060
0 11 17 -3.7793 0.0372
0 11 19 -2.8192 2.6239
0 12 0 6.2774 0.1887
0 12 2 3.7807 -0.7536
0 12 4 0.1685 -1.0806
0 12 6 -3.3954 -0.8297
0 12 8 -5.5746 -0.6733
0 12 10 -1.2459 -1.2366
0 12 12 1.0570 -0.7762
0 12 14 0.3662 -0.8860
0 12 16 2.2948 -1.0149
0 12 18 2.0506 -0.3989
0 13 1 -6.1133 -0.1980
0 13 3 -2.9920 0.0956
0 13 5 3.5402 0.1411
0 13 7 3.7721 -0.1537
0 13 9 2.3358 0.2897
0 13 11 1.1305 0.6091
0 13 13 -1.9502 -0.8878
0 13 15 -1.5929 0.0351
0 13 17 -0.0099 -0.2099
0 13 19 -1.4153 0.7186
0 14 0 6.7766 0.5292
0 14 2 5.4136 0.6919
0 14 4 -2.5775 0.8470
0 14 6 -4.7718 0.9136
0 14 8 -0.9737 1.0630
0 14 10 -2.9891 0.2786
0 14 12 1.2280 0.8166
0 14 14 3.3209 2.0507
0 14 16 -1.7784 1.3401
0 15 1 -6.8227 -0.6302
0 15 3 1.0528 -0.8393
0 15 5 6.4852 -1.2431
0 15 7 1.3807 -1.5011
0 15 9 2.2147 -1.1780
0 15 11 1.0395 -0.3281
0 15 13 -4.9172 -0.7456
0 15 15 0.4116 -2.5884
0 16 0 8.6696 0.2844
0 16 2 1.4053 0.2299
0 16 4 -7.3306 0.4017
0 16 6 -3.5695 1.1831
0 16 8 -0.8712 1.0517
0 16 10 -1.9059 0.5355
0 16 12 4.1804 -1.2717
0 16 14 3.2546 -0.2190
0 17 1 -6.0923 0.2188
0 17 3 5.3180 0.5781
0 17 5 5.7146 0.2034
0 17 7 0.9691 -0.2840
0 17 9 0.7174 -0.6577
0 17 11 -2.4038 0.7902
0 17 13 -5.2438 3.4677
0 18 0 7.4794 -0.4093
0 18 2 0.4907 -0.9256
0 18 4 -4.6101 -1.7305
0 18 6 -2.2250 -1.4415
0 18 8 -0.1419 0.2988
0 18 10 2.3029 1.1120
0 18 12 4.0395 -2.6755
0 19 1 -4.1077 -0.0776
0 19 3 -0.3458 2.7248
0 19 5 0.8493 3.6443
0 19 7 1.7440 1.1863
0 19 9 -2.2359 -2.2998
0 19 11 -3.2480 -0.7864
0 20 0 2.5896 3.5540
0 20 2 3.2219 -1.3002
0 20 4 3.6776 -5.9058
0 20 6 -1.2399 -3.3484
0 20 8 -0.7188 1.5544
0 21 1 -1.6066 -4.5849
0 21 3 -5.2867 5.4524
0 21 5 -2.8170 6.0425
0 21 7 2.4677 0.0626
1 0 1 -34.4272 -5.5762
1 0 3 -11.0323 -13.9416
1 0 5 -3.8218 -16.2916
1 0 7 -17.3198 -16.1054
1 0 9 -17.9738 -13.0951
1 0 11 -5.9152 -10.9861
1 0 13 0.5804 -12.3256
1 0 15 1.0233 -11.1909
1 0 17 0.1416 -9.7487
1 0 19 0.8726 -10.0321
1 0 21 0.7122 -9.3328
1 1 0 31.8597 2.5620
1 1 1 0.7378 -2.6563
1 1 2 17.9468 9.1198
1 1 3 17.7727 -0.4371
1 1 4 0.9983 12.2118
1 1 5 2.1435 -2.0262
1 1 6 8.9434 14.5862
1 1 7 -6.5703 -0.2987
1 1 8 19.5188 13.2831
1 1 9 2.2274 -3.6246
1 1 10 11.2772 7.7431
1 1 11 -0.1438 -2.6865
1 1 12 1.1808 9.0240
1 1 13 -0.7204 -0.2564
1 1 14 -1.0253 10.3047
1 1 15 1.8484 -0.3236
1 1 16 -0.6125 7.0996
1 1 17 0.3380 -0.6462
1 1 18 -1.0530 7.0766
1 1 19 0.9544 0.1448
1 1 20 -0.9709 8.7189
1 1 21 1.5116 1.6139
1 1 22 0.3311 5.0704
1 2 0 7.7846 -0.1976
1 2 1 -11.2548 0.4353
1 2 2 -20.3400 -3.5487
1 2 3 2.8018 -4.4149
1 2 4 -23.3747 0.8761
1 2 5 1.6694 -7.6110
1 2 6 9.8480 1.0347
1 2 7 -13.5538 -9.5340
1 2 8 4.0906 0.8245
1 2 9 -14.6038 -4.9531
1 2 10 -3.4285 5.2499
1 2 11 -3.6577 -2.9160
1 2 12 2.6054 0.4863
1 2 13 0.9282 -6.8582
1 2 14 -1.3148 0.1313
1 2 15 0.4754 -4.8113
1 2 16 -2.3867 0.7140
1 2 17 1.7891 -1.4808
1 2 18 -0.6467 -0.1018
1 2 19 2.2369 -4.5899
1 2 20 -1.9620 -0.8776
1 2 21 -0.8443 -4.5690
1 2 22 -0.7395 -1.1420
1 3 0 -6.1131 -12.0621
1 3 1 2.0557 7.7467
1 3 2 -12.0205 -5.2399
1 3 3 36.2345 1.6829
1 3 4 -12.2086 1.2623
1 3 5 7.8192 0.4216
1 3 6 3.2404 1.9846
1 3 7 -13.9297 1.9468
1 3 8 12.4069 0.9420
1 3 9 1.0525 -1.8242
1 3 10 6.4391 -1.2297
1 3 11 0.0547 -1.4139
1 3 12 -0.7821 0.9331
1 3 13 -2.2330 2.0607
1 3 14 -1.0145 2.3043
1 3 15 2.8521 -0.0871
1 3 16 -0.8208 -1.5535
1 3 17 2.1959 -0.0869
1 3 18 -3.5406 -1.2659
1 3 19 0.7981 0.6459
1 3 20 -1.0373 2.2820
1 3 21 0.5496 1.2368
1 3 22 4.6561 -2.4733
1 3 23 -0.0363 -0.5211
1 4 0 7.0061 -18.9245
1 4 1 22.0622 15.4243
1 4 2 -21.3098 -1.5444
1 4 3 22.2547 2.2734
1 4 4 -28.6238 -1.2429
1 4 5 7.1157 1.0443
1 4 6 6.6971 -4.1484
1 4 7 -6.6540 4.6763
1 4 8 9.4947 -0.6887
1 4 9 -6.6329 3.4343
1 4 10 -1.2627 -1.1885
1 4 11 -0.9703 2.6053
1 4 12 1.9835 -1.6640
1 4 13 2.4899 1.0704
1 4 14 0.7727 -2.4634
1 4 15 0.6248 2.4709
1 4 16 -3.3398 0.2526
1 4 17 1.7525 3.4296
1 4 18 -1.6279 0.0584
1 4 19 3.7217 1.1288
1 4 20 1.1763 -1.2576
1 4 21 -2.9724 1.7325
1 4 22 0.6486 0.3796
1 4 23 -7.5859 6.0038
1 5 0 -26.1313 -22.0648
1 5 1 1.3837 9.9006
1 5 2 -26.1746 -6.5446
1 5 3 25.1660 -4.0138
1 5 4 -15.5424 2.3250
1 5 5 12.4804 5.5996
1 5 6 0.8449 -5.2918
1 5 7 -10.6095 0.3864
1 5 8 5.4359 -5.3695
1 5 9 -6.0955 2.0004
1 5 10 2.4981 -3.0029
1 5 11 0.6029 2.5439
1 5 12 -1.9753 -2.3130
1 5 13 -2.3906 1.1727
1 5 14 -2.4172 -2.5534
1 5 15 0.2639 1.7681
1 5 16 -0.1413 -3.0491
1 5 17 3.1894 -1.4907
1 5 18 -2.8618 -1.3317
1 5 19 -0.7316 0.7185
1 5 20 -1.1157 -1.8776
1 5 21 -2.7079 -0.1315
1 5 22 6.6989 -3.8670
1 5 23 0.6054 -1.1737
1 6 0 3.1491 -19.1801
1 6 1 21.8494 13.3681
1 6 2 -7.1613 1.6495
1 6 3 16.5164 -4.8447
1 6 4 -17.0324 0.1333
1 6 5 4.5222 -0.3150
1 6 6 -2.6739 -1.2791
1 6 7 -4.5509 4.5572
1 6 8 11.0901 1.3969
1 6 9 -4.4096 2.1987
1 6 10 3.1715 -2.6172
1 6 11 0.4373 1.7113
1 6 12 -0.3263 0.0888
1 6 13 2.5747 0.8389
1 6 14 2.9021 -0.5148
1 6 15 1.1442 1.7465
1 6 16 -1.0961 0.4269
1 6 17 1.5421 0.4452
1 6 18 -1.2658 0.9990
1 6 19 2.2386 0.1935
1 6 20 2.6155 0.0059
1 6 21 -2.2739 2.5312
1 6 22 1.5856 0.5538
1 6 23 -5.9891 2.5014
1 7 0 -13.6566 -19.3724
1 7 1 -2.0541 8.6994
1 7 2 -10.3427 0.0920
1 7 3 4.9748 -1.9337
1 7 4 -5.0164 5.5962
1 7 5 10.4963 -2.3221
1 7 6 1.9046 -0.9981
1 7 7 -3.6212 -1.8817
1 7 8 6.9075 -0.6882
1 7 9 -9.5946 -1.0248
1 7 10 2.1640 -0.4838
1 7 11 -0.1057 -0.2019
1 7 12 -1.5025 0.4930
1 7 13 -1.4934 -0.7655
1 7 14 -0.8666 0.8975
1 7 15 -2.8756 -1.2630
1 7 16 -2.9314 0.0681
1 7 17 0.5776 -0.4016
1 7 18 -2.4543 0.8318
1 7 19 -0.6342 -0.8004
1 7 20 0.1600 -0.4475
1 7 21 -1.9902 -0.0218
1 7 22 2.2668 -2.0320
1 8 0 3.0025 -12.2075
1 8 1 4.3920 9.5302
1 8 2 3.8828 -5.4118
1 8 3 1.0204 -3.9110
1 8 4 -3.7671 4.8969
1 8 5 -0.6887 -2.4459
1 8 6 -5.0715 3.1183
1 8 7 -6.0411 -0.3720
1 8 8 7.7434 1.1503
1 8 9 -5.5157 -0.6776
1 8 10 5.7125 2.5281
1 8 11 -0.2605 -1.0808
1 8 12 -0.1321 -0.3697
1 8 13 -0.6923 -1.7744
1 8 14 3.3679 1.6741
1 8 15 2.8549 -1.5283
1 8 16 2.8896 1.2239
1 8 17 5.0990 -0.4278
1 8 18 0.3533 -0.6123
1 8 19 0.4425 -0.2725
1 8 20 0.5090 0.3255
1 8 21 -0.4693 1.0042
1 8 22 0.6174 -2.5285
1 9 0 -0.7859 -14.7479
1 9 1 -4.1729 11.6032
1 9 2 0.5291 -3.3837
1 9 3 -3.8512 -1.5657
1 9 4 1.9327 2.3111
1 9 5 3.2031 -4.0981
1 9 6 4.1818 1.4347
1 9 7 -0.6492 -0.3091
1 9 8 5.2992 0.2382
1 9 9 -7.8272 -1.5240
1 9 10 2.7404 1.6359
1 9 11 -3.1774 -0.2038
1 9 12 2.2544 1.3641
1 9 13 -1.0805 0.6810
1 9 14 -0.7874 1.0499
1 9 15 -4.3783 -1.8585
1 9 16 -5.9210 1.0847
1 9 17 -2.9253 0.2983
1 9 18 -2.9365 -0.4580
1 9 19 0.2437 1.4886
1 9 20 0.7104 -0.6791
1 9 21 0.2784 2.2841
1 10 0 3.0294 -20.0035
1 10 1 0.7471 8.7625
1 10 2 3.9627 -1.5788
1 10 3 -0.6707 0.4584
1 10 4 2.2760 2.5208
1 10 5 -4.0223 -1.8638
1 10 6 -0.7784 -0.4583
1 10 7 -3.3780 -0.1190
1 10 8 3.3395 0.1058
1 10 9 -2.4395 -0.5551
1 10 10 6.6289 -1.7501
1 10 11 -4.2354 -1.8851
1 10 12 1.7473 -0.5708
1 10 13 -1.1505 0.3313
1 10 14 1.6689 -0.3321
1 10 15 3.9152 -0.2287
1 10 16 4.9684 0.9392
1 10 17 3.7578 -0.1896
1 10 18 1.2855 -1.2821
1 10 19 0.5244 0.9554
1 10 20 -1.2940 -3.8312
1 10 21 -1.2733 1.9306
1 11 0 -3.3807 -13.2549
1 11 1 -1.4883 10.8614
1 11 2 -2.4395 -1.8773
1 11 3 -2.4130 -3.7324
1 11 4 2.3881 2.1810
1 11 5 -2.4076 2.7919
1 11 6 3.3092 0.4784
1 11 7 -0.1246 -0.3374
1 11 8 0.5927 -0.3056
1 11 9 -3.9430 3.2120
1 11 10 4.2547 1.2312
1 11 11 -4.7318 1.9227
1 11 12 3.2887 0.5548
1 11 13 0.5870 -0.6368
1 11 14 -1.9539 -1.2557
1 11 15 -2.6778 0.9379
1 11 16 -1.8201 -0.4592
1 11 17 -3.6124 -1.2637
1 11 18 -0.9897 0.0828
1 11 19 1.1990 3.6583
1 11 20 1.1446 -1.2892
1 12 0 -0.8285 -17.2080
1 12 1 5.3604 7.6114
1 12 2 -0.3192 -1.1615
1 12 3 0.3570 -4.5862
1 12 4 2.5943 -0.2761
1 12 5 -2.8943 -0.8287
1 12 6 1.4190 -1.5706
1 12 7 -0.5305 0.7535
1 12 8 -0.6288 -0.7640
1 12 9 -2.6157 -0.1305
1 12 10 3.4093 -3.5076
1 12 11 -4.1958 -0.8919
1 12 12 0.5318 1.3543
1 12 13 0.1526 -0.0903
1 12 14 -1.3873 -0.3598
1 12 15 0.3350 1.8494
1 12 16 3.0522 0.5091
1 12 17 -0.2579 0.6889
1 12 18 0.2442 -0.3283
1 12 19 -0.6133 -0.4339
1 12 20 -1.8310 -3.7486
1 13 0 -7.0481 -18.0100
1 13 1 2.5581 7.7045
1 13 2 -2.9390 1.3835
1 13 3 -0.2235 0.5955
1 13 4 1.5095 3.6737
1 13 5 -1.9054 -0.3121
1 13 6 0.6939 -1.9875
1 13 7 1.3083 0.5166
1 13 8 1.7376 -0.8364
1 13 9 1.3513 0.6949
1 13 10 3.3153 -0.1187
1 13 11 -0.2634 -0.1781
1 13 12 0.9803 1.2311
1 13 13 2.3655 -1.0548
1 13 14 0.2663 -0.5057
1 13 15 0.1526 -0.2375
1 13 16 0.5022 -2.4249
1 13 17 -0.9734 -0.1848
1 13 18 0.5450 -0.4359
1 13 19 1.7073 1.4127
1 14 0 -3.8876 -2.3343
1 14 1 4.9822 9.6462
1 14 2 -1.4029 -4.3798
1 14 3 0.5376 -3.4481
1 14 4 0.4630 1.8991
1 14 5 0.0504 0.8589
1 14 6 -0.9077 0.9378
1 14 7 -1.0144 2.3953
1 14 8 -3.1375 0.3711
1 14 9 -2.0058 1.4336
1 14 10 -3.1567 1.7760
1 14 11 -0.6578 -0.4392
1 14 12 -2.0795 0.0063
1 14 13 -0.5588 -0.8853
1 14 14 -1.5573 1.2010
1 14 15 0.5098 1.5002
1 14 16 -0.1104 -0.5083
1 14 17 0.6125 2.2177
1 14 18 -1.0739 -1.0018
1 15 0 -3.9594 -15.1463
1 15 1 2.3250 0.9719
1 15 2 -2.7575 -2.9388
1 15 3 -0.0742 -0.0380
1 15 4 -1.9015 0.4128
1 15 5 1.8958 -2.6448
1 15 6 -0.1593 -1.5602
1 15 7 2.5360 -0.7923
1 15 8 0.8203 -2.4992
1 15 9 4.6184 -1.9842
1 15 10 -0.7077 -1.2186
1 15 11 3.6272 -0.0670
1 15 12 0.2740 0.7295
1 15 13 0.5620 -0.5938
1 15 14 -1.1764 -0.3820
1 15 15 0.6284 0.1041
1 15 16 -2.7823 -1.0667
1 16 0 -1.3710 -1.7544
1 16 1 2.0091 7.3839
1 16 2 0.3685 2.0901
1 16 3 3.9288 0.5363
1 16 4 -1.9058 1.2252
1 16 5 2.1811 -0.6497
1 16 6 -3.1270 1.3004
1 16 7 -0.2035 0.7564
1 16 8 -3.0288 1.3141
1 16 9 1.8302 2.3690
1 16 10 -4.5465 -0.8673
1 16 11 1.0800 0.2489
1 16 12 -0.0843 0.5361
1 16 13 0.9187 -0.0355
1 16 14 0.9074 0.2354
1 16 15 4.0238 -0.0191
1 17 0 0.5124 -10.5083
1 17 1 -1.1120 -0.2079
1 17 2 -2.6732 -0.9961
1 17 3 0.7281 -2.1608
1 17 4 -4.0807 2.6351
1 17 5 3.9690 0.9860
1 17 6 -0.6965 1.8579
1 17 7 2.0668 -1.0871
1 17 8 -1.3799 -0.3348
1 17 9 2.9317 1.7262
1 17 10 -2.4263 -1.3178
1 17 11 0.4555 0.4376
1 17 12 -1.1570 0.3878
1 17 13 -2.9041 -1.6035
1 17 14 -3.1087 0.5733
1 17 15 -0.2135 2.1858
1 18 0 2.7741 -2.0357
1 18 1 -0.6993 6.0797
1 18 2 0.6264 0.6929
1 18 3 2.6735 -4.9499
1 18 4 -3.8527 -1.2490
1 18 5 1.6175 -3.2382
1 18 6 -2.7819 -1.6811
1 18 7 0.8551 -2.3840
1 18 8 -0.8710 -1.1385
1 18 9 1.9846 -0.3836
1 18 10 -0.2496 -0.9462
1 18 11 1.8962 0.2882
1 18 12 3.4814 1.9298
1 18 14 2.0760 -0.3260
1 19 0 1.4382 -15.0122
1 19 1 -2.4261 -0.4937
1 19 2 0.5078 0.8426
1 19 3 2.8952 1.8299
1 19 4 0.0402 4.2419
1 19 5 4.0197 2.6455
1 19 6 -0.8808 2.4306
1 19 7 0.4315 3.0375
1 19 8 -1.5704 3.5519
1 19 9 -0.8072 -0.4354
1 19 10 -1.2637 0.2357
1 19 11 -2.6678 -1.9981
1 19 12 -2.0940 1.3965
1 20 0 2.8306 8.9610
1 20 1 -0.7457 8.9690
1 20 2 -0.8620 -0.4998
1 20 3 -2.5421 -0.5892
1 20 4 -4.3695 -2.4528
1 20 5 -0.9272 -0.5911
1 20 6 -1.7081 -3.9288
1 20 7 2.2520 -4.3924
1 20 8 1.4353 -1.0443
1 20 9 0.8877 -2.7962
1 20 10 2.2009 3.5414
1 21 0 -0.5954 -10.9543
1 21 1 -0.6359 -8.1858
1 21 2 1.8464 -6.5719
1 21 3 2.8546 1.3620
1 21 4 3.0955 -3.9490
1 21 5 2.7087 2.8723
1 21 6 -1.2677 2.2291
1 22 2 -1.0404 4.4073
2 0 0 -14.4086 5.6755
2 0 2 24.9497 0.7105
2 0 4 34.8381 0.3042
2 0 6 -6.5522 -0.1983
2 0 8 -2.5805 -0.8874
2 0 10 6.0620 2.4218
2 0 12 -3.5508 1.3324
2 0 14 -4.6837 -0.9218
2 0 16 -2.7072 -1.7643
2 0 18 1.3039 -1.4671
2 0 20 3.4053 -2.5466
2 0 22 1.5013 -3.0728
2 1 0 3.7471 8.5567
2 1 1 4.1507 -7.7469
2 1 2 -0.2847 1.4815
2 1 3 -35.7851 0.8872
2 1 4 -0.1838 1.5770
2 1 5 -11.5775 -0.5185
2 1 6 3.3414 4.9943
2 1 7 9.8462 0.1933
2 1 8 -0.9689 1.5241
2 1 9 -3.7617 -1.1694
2 1 10 -2.0275 2.1414
2 1 11 -1.3892 -2.2195
2 1 12 0.5582 2.1330
2 1 13 4.6343 -1.5417
2 1 14 0.3657 4.2723
2 1 15 3.6336 0.2424
2 1 16 1.0596 2.5825
2 1 17 1.0068 1.0163
2 1 18 0.4174 2.3967
2 1 19 -2.8190 0.2011
2 1 20 0.4270 3.3201
2 1 21 -2.3419 2.8679
2 1 22 2.5441 2.4259
2 2 0 -18.0196 19.2931
2 2 1 -5.2043 -4.7537
2 2 2 7.4703 3.9841
2 2 3 2.0353 3.3122
2 2 4 20.6869 1.4666
2 2 5 -3.2313 -3.9209
2 2 6 -2.9248 2.6807
2 2 7 -2.6467 -0.3199
2 2 8 -5.9115 0.1001
2 2 9 4.0842 0.5841
2 2 10 2.4545 1.8781
2 2 11 0.8440 -0.2579
2 2 12 -0.9428 2.1315
2 2 13 -1.2466 -1.2381
2 2 14 -3.9795 1.8062
2 2 15 -0.8366 -3.2899
2 2 16 -2.3747 0.3031
2 2 17 -1.0177 0.7439
2 2 18 0.8526 1.3402
2 2 19 -0.7865 -2.2224
2 2 20 2.2386 1.1969
2 2 21 -4.3268 -2.0581
2 2 22 1.3173 -5.3008
2 3 0 11.1388 2.3402
2 3 1 15.3324 -10.5923
2 3 2 3.0425 -1.8759
2 3 3 -2.5875 -0.6221
2 3 4 -0.6222 1.4726
2 3 5 -7.4213 -5.9847
2 3 6 4.0425 1.2884
2 3 7 6.2081 0.2810
2 3 8 -1.4209 -1.6193
2 3 9 6.4574 -0.2772
2 3 10 -3.3857 -0.5925
2 3 11 -1.9094 -2.1157
2 3 12 1.3619 -0.9712
2 3 13 1.7444 -0.9749
2 3 14 1.1529 1.5462
2 3 15 3.5921 -0.9230
2 3 16 -0.0824 -0.4353
2 3 17 0.1019 -1.5483
2 3 18 0.3330 -1.6133
2 3 19 -0.8172 -3.3479
2 3 20 5.3378 1.3826
2 3 21 -0.7552 1.0545
2 3 22 7.9741 0.1519
2 4 0 -15.4014 7.3520
2 4 1 -12.0497 3.7405
2 4 2 -16.6401 -3.5371
2 4 3 -1.5808 -3.9474
2 4 4 -1.6110 4.4593
2 4 5 -0.2826 -0.2704
2 4 6 4.6710 1.6790
2 4 7 -1.2883 -0.1626
2 4 8 -11.3913 -3.0593
2 4 9 2.1399 0.3311
2 4 10 -5.0443 2.0586
2 4 11 -0.0013 1.0008
2 4 12 2.3814 0.0525
2 4 13 -2.0390 -0.4893
2 4 14 -3.8126 -0.8094
2 4 15 0.8536 0.7076
2 4 16 -1.0480 0.1869
2 4 17 2.0715 1.7158
2 4 18 0.8591 2.9222
2 4 19 -3.4598 1.5975
2 4 20 -0.9805 1.3561
2 4 21 -10.0791 -0.2422
2 4 22 0.9685 -5.1412
2 5 0 16.5653 -10.5711
2 5 1 12.1024 11.4219
2 5 2 9.9973 4.4331
2 5 3 16.6100 2.9143
2 5 4 -0.0920 2.5163
2 5 5 -4.4603 -2.7729
2 5 6 -1.0683 -1.4332
2 5 7 1.3536 4.1944
2 5 8 0.7249 2.2023
2 5 9 13.2908 -0.1295
2 5 10 0.6778 -1.1811
2 5 11 0.6280 -0.8602
2 5 12 2.1572 1.5322
2 5 13 0.3092 1.6298
2 5 14 -0.2162 -0.4552
2 5 15 2.8859 1.8765
2 5 16 -3.9933 -1.4878
2 5 17 -1.4014 -0.3519
2 5 18 -0.8607 -1.0290
2 5 19 0.6822 -2.0211
2 5 20 7.4213 -1.6497
2 5 21 1.2647 2.9491
2 5 22 8.4190 1.5915
2 6 0 -0.2604 -21.9152
2 6 1 -15.6534 1.3053
2 6 2 -11.2349 -10.2896
2 6 3 -5.8710 -4.2545
2 6 4 -6.4834 0.9641
2 6 5 3.1285 1.6130
2 6 6 5.8567 -2.5475
2 6 7 0.5078 -0.3631
2 6 8 -7.2475 -1.4587
2 6 9 -2.9434 -0.4493
2 6 10 -8.8163 1.3819
2 6 11 -2.8304 -0.6137
2 6 12 0.2213 -0.5609
2 6 13 -0.8568 -1.7485
2 6 14 -0.8710 -1.3004
2 6 15 4.0562 1.5971
2 6 16 -0.5713 -2.2574
2 6 17 3.9660 -0.0788
2 6 18 1.0117 0.8335
2 6 19 -1.9883 0.8405
2 6 20 -1.1408 -0.7175
2 6 21 -6.1409 -0.6568
2 6 22 -0.4250 -3.7147
2 7 0 15.4965 2.2557
2 7 1 -3.8828 15.2238
2 7 2 11.0721 -1.2580
2 7 3 5.1154 -0.0781
2 7 4 -0.2805 0.3071
2 7 5 -0.4318 -0.3934
2 7 6 -3.8940 -1.8127
2 7 7 -2.3041 1.2860
2 7 8 2.2518 -1.4211
2 7 9 6.9889 -1.1235
2 7 10 4.0418 1.0324
2 7 11 5.8620 -0.6268
2 7 12 1.9806 0.9181
2 7 13 -1.8520 -0.3025
2 7 14 -2.6473 0.1566
2 7 15 -0.0295 1.2441
2 7 16 -4.8308 -0.4323
2 7 17 0.9376 1.1837
2 7 18 -1.0781 0.5467
2 7 19 -1.5219 -0.6461
2 7 20 1.6005 0.7804
2 7 21 0.6655 1.3274
2 7 22 2.1593 0.7969
2 8 0 9.7886 -14.1854
2 8 1 -11.7672 0.4748
2 8 2 5.6574 -0.5863
2 8 3 -3.8514 3.6020
2 8 4 -1.0088 4.4104
2 8 5 4.4625 -0.7016
2 8 6 0.8902 1.2772
2 8 7 1.6563 4.6798
2 8 8 1.1291 -0.3651
2 8 9 -3.3432 -0.1554
2 8 10 -7.0681 0.9929
2 8 11 -2.6092 -0.9344
2 8 12 -1.7823 0.9708
2 8 13 0.8439 0.8110
2 8 14 3.8496 -0.0337
2 8 15 3.9339 -0.5786
2 8 16 -2.4841 -0.2719
2 8 17 1.5466 0.3476
2 8 18 0.3976 0.1909
2 8 19 -0.4959 -1.3950
2 8 20 2.4908 0.8892
2 8 21 0.5087 -0.4278
2 8 22 -0.9759 -0.0482
2 9 0 10.1081 1.8069
2 9 1 -9.0107 2.5055
2 9 2 5.9951 -3.6177
2 9 3 -4.9676 -5.1165
2 9 4 -2.1323 0.4575
2 9 5 1.4572 -5.2277
2 9 6 -4.5533 -2.4310
2 9 7 -1.3908 0.5448
2 9 8 -0.2156 -2.4227
2 9 9 1.6063 1.5770
2 9 10 2.0882 1.6955
2 9 11 5.2332 -1.6646
2 9 12 0.1082 -1.1619
2 9 13 -2.8813 0.7038
2 9 14 -2.4020 -0.0885
2 9 15 -0.3758 -0.0720
2 9 16 -0.9562 -0.1037
2 9 17 2.5762 -1.2905
2 9 18 2.0703 0.1561
2 9 19 -2.9349 -1.1629
2 9 20 0.4046 0.6840
2 9 21 -1.5179 -1.4703
2 10 0 5.7015 -8.9214
2 10 1 -7.3595 2.5252
2 10 2 6.2846 0.3517
2 10 3 -0.8340 -2.7304
2 10 4 2.2827 5.5053
2 10 5 3.7477 0.9353
2 10 6 -1.2766 1.4008
2 10 7 3.7870 0.7529
2 10 8 -0.4483 -3.8596
2 10 9 0.4902 -0.8399
2 10 10 -3.1497 -0.1199
2 10 11 -0.5243 -0.1074
2 10 12 -1.2609 0.3895
2 10 13 1.6872 0.0670
2 10 14 1.1552 -1.9887
2 10 15 0.4544 0.7561
2 10 16 -1.6680 1.2436
2 10 17 -3.4526 -0.0630
2 10 18 0.4818 2.2376
2 10 19 -3.4651 -0.2183
2 10 20 2.5749 2.2356
2 10 21 -0.2681 0.6390
2 11 0 8.2312 -9.8751
2 11 1 -2.3056 13.3754
2 11 2 4.1582 5.0467
2 11 3 -4.2369 -2.9169
2 11 4 -0.6744 2.0772
2 11 5 -1.4116 -1.2323
2 11 6 -3.4730 -0.2995
2 11 7 2.5756 3.1586
2 11 8 -3.9039 2.6533
2 11 9 2.0394 2.2253
2 11 10 -0.4519 -0.5361
2 11 11 2.0443 -0.9183
2 11 12 -0.8784 1.6048
2 11 13 2.1993 0.8523
2 11 14 -1.1251 -0.7518
2 11 15 0.5588 1.5409
2 11 16 3.4867 -0.8136
2 11 17 -0.4445 -1.8182
2 11 18 5.3033 1.2398
2 11 19 -1.0884 -4.1676
2 11 20 2.7948 -0.2883
2 12 0 -0.8869 -35.6126
2 12 1 -7.2180 1.5041
2 12 2 1.7467 -5.5136
2 12 3 -2.7883 -5.0391
2 12 4 4.7517 3.0507
2 12 5 0.1309 0.0365
2 12 6 -0.4477 -3.8674
2 12 7 3.9304 -2.3906
2 12 8 -3.6961 -1.1468
2 12 9 3.2356 -0.5069
2 12 10 -1.4832 0.2715
2 12 11 0.6263 -0.6855
2 12 12 -4.2211 1.4754
2 12 13 1.4041 -0.9938
2 12 14 -2.8834 -0.8645
2 12 15 -1.7678 1.7607
2 12 16 1.4730 -1.5577
2 12 17 -5.1928 -1.1935
2 12 18 0.8737 4.0777
2 12 19 -3.7900 -1.4879
2 13 0 7.5575 0.0932
2 13 1 0.9544 24.9590
2 13 2 5.7490 -0.3540
2 13 3 -3.9772 -5.8974
2 13 4 3.0508 1.0832
2 13 5 -3.9184 1.5371
2 13 6 -0.6079 0.5071
2 13 7 2.8796 1.7090
2 13 8 -3.8061 -0.0354
2 13 9 2.6706 -1.6603
2 13 10 -2.5557 0.7103
2 13 11 3.5912 -1.4799
2 13 12 -1.2750 0.2597
2 13 13 5.3332 -1.7818
2 13 14 0.3425 -0.9559
2 13 15 -0.1342 1.8807
2 13 16 3.4750 -0.1365
2 13 17 -1.7491 -0.4841
2 13 18 3.2916 1.7911
2 13 19 -0.7516 -6.4648
2 14 0 -1.6850 -35.6860
2 14 1 -5.9576 -0.1602
2 14 2 1.0803 -2.1809
2 14 3 -5.3890 3.7166
2 14 4 4.8273 6.1100
2 14 5 -2.2683 -0.7590
2 14 6 0.7958 -1.8403
2 14 7 1.1514 2.2622
2 14 8 -3.3728 1.4576
2 14 9 3.2992 -0.1659
2 14 10 -3.1783 1.5105
2 14 11 2.7335 -0.3335
2 14 12 -4.9125 1.7678
2 14 13 0.0394 1.7231
2 14 14 -2.2721 -0.1856
2 14 15 -2.0850 0.0773
2 14 16 1.3726 -0.4877
2 14 17 -2.1271 0.0722
2 14 18 1.3305 3.0473
2 15 0 3.6314 4.1719
2 15 1 1.1585 13.5986
2 15 2 5.4824 -3.5840
2 15 3 -2.1992 -6.9122
2 15 4 4.3440 -2.1622
2 15 5 -2.5850 -2.6775
2 15 6 0.9527 -1.1064
2 15 7 1.6248 0.2510
2 15 8 -1.1521 -1.8538
2 15 9 3.5908 -0.3904
2 15 10 -3.3880 0.7499
2 15 11 3.2619 -0.9391
2 15 12 -1.0617 -1.3571
2 15 13 2.5388 0.4632
2 15 14 1.9058 -0.7389
2 15 15 0.2558 -0.2788
2 15 16 1.4729 -0.8344
2 16 0 -2.3418 -17.4617
2 16 1 -2.6323 0.1633
2 16 2 -0.6978 -0.6389
2 16 3 -5.1479 1.2362
2 16 4 0.9494 5.3787
2 16 5 -2.2561 1.3265
2 16 6 0.0087 0.0337
2 16 7 -0.3694 0.2646
2 16 8 -2.6870 -1.6258
2 16 9 1.6084 0.5781
2 16 10 -2.9326 -0.4288
2 16 11 1.4511 0.0476
2 16 12 -0.8728 -0.4335
2 16 13 -1.8381 0.2186
2 16 14 -0.6897 -0.6279
2 16 15 -1.6180 1.6695
2 17 0 0.5000 -5.4309
2 17 1 2.6153 12.8592
2 17 2 2.9210 2.5467
2 17 3 1.0943 -4.0835
2 17 4 3.1024 0.3183
2 17 5 0.7158 -0.7956
2 17 6 0.7731 0.4721
2 17 7 0.8895 2.7238
2 17 8 -0.4271 0.8972
2 17 9 2.6555 1.5239
2 17 10 -0.4751 -1.0200
2 17 11 0.6242 0.1920
2 17 12 2.3015 1.4183
2 17 13 -0.8925 0.0278
2 17 14 2.1212 -1.5831
2 18 0 -3.6285 -30.3400
2 18 1 -0.3362 1.2297
2 18 2 -2.1859 -3.9646
2 18 3 -1.3754 -4.2222
2 18 4 -1.5828 3.7507
2 18 5 -0.8227 -0.6634
2 18 6 -0.5998 -3.7377
2 18 7 0.3190 -1.7460
2 18 8 -1.1682 -1.1608
2 18 9 0.4700 0.3047
2 18 10 -1.7342 -0.1758
2 18 11 -2.6902 -0.4499
2 18 12 1.3656 1.3864
2 18 13 -3.3653 0.1927
2 19 0 -0.2160 -1.0404
2 19 1 3.3846 22.1680
2 19 2 -1.0546 2.5063
2 19 3 1.2415 -4.7300
2 19 4 -1.1929 2.6539
2 19 5 0.7406 1.0479
2 19 6 -0.4532 0.5111
2 19 7 0.2473 1.2918
2 19 8 -0.9936 0.6545
2 19 9 1.8106 -1.2285
2 19 10 1.1467 0.0581
2 20 0 -4.2319 -32.0745
2 20 1 1.1765 -2.9307
2 20 2 -1.6951 -4.5060
2 20 3 3.5348 -2.1312
2 20 4 0.1838 3.4277
2 20 5 2.1920 -0.5315
2 20 6 0.0387 -0.1338
2 20 7 0.9369 0.0723
2 20 8 -1.1487 2.8257
2 20 9 0.5629 -0.7044
2 21 3 -0.3258 -1.3252
2 21 4 -3.9364 0.1188
2 21 5 -0.7732 -2.1461
2 21 6 -1.6902 0.2480
2 21 7 0.2999 -3.9338
3 0 1 5.6476 6.4029
3 0 3 -20.1307 -3.1309
3 0 5 -9.3798 -8.7213
3 0 7 2.1367 -4.6184
3 0 9 -2.5821 -3.6401
3 0 11 2.1598 -6.0170
3 0 13 2.0879 -5.3786
3 0 15 0.8865 -4.6779
3 0 17 -0.0774 -5.7949
3 0 19 -3.4744 -5.8791
3 0 21 1.0627 -4.9053
3 1 0 -13.3765 -5.2125
3 1 1 8.8584 -15.2423
3 1 2 6.7846 0.8211
3 1 3 -4.8384 9.5483
3 1 4 17.0595 4.6730
3 1 5 1.3142 5.9571
3 1 6 0.2099 6.7659
3 1 7 5.9272 4.0630
3 1 8 -0.5185 3.0414
3 1 9 0.6340 8.2018
3 1 10 0.7331 2.8721
3 1 11 -0.1645 4.7481
3 1 12 -2.7939 4.9464
3 1 13 -1.3998 7.2301
3 1 14 -0.8934 4.0263
3 1 15 -2.9246 5.6454
3 1 16 -1.3071 3.4862
3 1 17 -0.4586 5.6000
3 1 18 2.0438 4.8365
3 1 19 2.6765 4.7690
3 1 20 1.7705 4.5476
3 1 21 2.0760 5.4944
3 1 22 -1.7920 -0.0077
3 2 0 -20.8225 26.3370
3 2 1 10.3183 0.2077
3 2 2 -0.3369 0.8904
3 2 3 -9.4477 0.5436
3 2 4 7.1969 -5.2780
3 2 5 -7.1806 -4.7371
3 2 6 -9.8116 2.1927
3 2 7 3.5743 -3.8884
3 2 8 -5.9030 -6.2710
3 2 9 1.1297 0.1424
3 2 10 0.5327 -2.8751
3 2 11 0.4273 -2.6499
3 2 12 0.8555 -4.4278
3 2 13 1.4977 -2.9473
3 2 14 4.2362 -4.4882
3 2 15 1.3367 -1.2360
3 2 16 2.7884 -3.1821
3 2 17 0.6259 -1.0442
3 2 18 -2.5329 -4.1838
3 2 19 -2.0299 -3.1415
3 2 20 -3.5669 -1.2730
3 2 21 -0.0345 0.1070
3 2 22 -0.7604 -4.2408
3 3 0 -15.7752 -3.5584
3 3 1 14.1418 -4.9935
3 3 2 -7.3617 -4.4437
3 3 3 -11.9382 5.9834
3 3 4 5.4204 0.7927
3 3 5 1.8342 -3.1022
3 3 6 1.1299 4.0878
3 3 7 12.7274 1.0449
3 3 8 -6.4660 -2.2990
3 3 9 1.8803 2.3465
3 3 10 -0.8632 0.0471
3 3 11 -1.0516 -0.2672
3 3 12 0.6388 1.6481
3 3 13 -2.9192 2.6319
3 3 14 -1.8148 -0.2538
3 3 15 -3.9248 0.1033
3 3 16 -1.1260 -1.6731
3 3 17 1.2378 1.5583
3 3 18 -0.3103 -0.1681
3 3 19 3.0794 -0.1002
3 3 20 0.4840 0.8668
3 3 21 0.4732 -0.1713
3 4 0 -15.2554 -1.7782
3 4 1 14.6478 8.4932
3 4 2 4.3313 -6.7694
3 4 3 6.9837 3.1108
3 4 4 10.3847 -0.9048
3 4 5 -4.3071 -4.6651
3 4 6 -9.9214 1.5213
3 4 7 3.9507 2.7155
3 4 8 -8.3118 -0.2501
3 4 9 6.7364 3.0042
3 4 10 1.0054 1.7266
3 4 11 -2.2960 -0.8971
3 4 12 2.0385 1.5186
3 4 13 0.3644 0.8060
3 4 14 2.4141 0.9319
3 4 15 1.5037 2.2802
3 4 16 -0.3184 1.9733
3 4 17 0.2709 2.6065
3 4 18 -2.7637 1.4040
3 4 19 1.8642 -0.8345
3 4 20 0.5204 1.5225
3 4 21 0.3176 2.3919
3 4 22 0.9344 1.3325
3 5 0 -12.4265 -14.2613
3 5 1 1.1710 5.1263
3 5 2 -13.2210 -7.2943
3 5 3 -12.0382 3.5660
3 5 4 -2.6767 4.7091
3 5 5 -2.1710 -0.4863
3 5 6 2.5747 -0.0540
3 5 7 9.8519 -1.7747
3 5 8 -6.9098 -4.8232
3 5 9 3.3267 -1.9392
3 5 10 -1.7622 -0.4969
3 5 11 -2.9043 -2.7319
3 5 12 2.5524 -0.4453
3 5 13 -0.7280 -2.8721
3 5 14 -1.2841 -1.0931
3 5 15 1.3011 -1.9417
3 5 16 0.6489 -3.1080
3 5 17 2.1390 -3.7032
3 5 18 -1.6439 -0.1152
3 5 19 0.3089 -1.4021
3 5 20 -3.1067 1.0259
3 5 21 -1.8621 -1.4833
3 5 22 -0.3025 -3.6671
3 6 0 4.8883 13.4549
3 6 1 9.5283 13.7604
3 6 2 7.7583 -1.9571
3 6 3 7.9602 -2.8228
3 6 4 8.3060 -0.4540
3 6 5 -0.6389 -3.2355
3 6 6 -1.4232 3.3203
3 6 7 0.2542 3.6992
3 6 8 -7.0198 1.5269
3 6 9 3.3358 1.7783
3 6 10 0.5520 1.9310
3 6 11 -1.0267 0.4714
3 6 12 1.9872 2.2102
3 6 13 -1.0093 -0.4128
3 6 14 -3.1608 1.5498
3 6 15 -0.7627 1.2723
3 6 16 -2.1538 2.3210
3 6 17 -0.3669 1.6203
3 6 18 -0.4630 2.6143
3 6 19 3.3587 -2.3272
3 6 20 0.0997 -0.3249
3 6 21 2.7592 0.4057
3 7 0 -5.5055 -19.6880
3 7 1 -9.3019 -17.5717
3 7 2 -4.9619 -3.3990
3 7 3 -5.2868 5.3446
3 7 4 -3.5828 4.7201
3 7 5 -5.0415 -6.5913
3 7 6 0.2758 -0.8706
3 7 7 2.2600 -0.8428
3 7 8 1.9328 -2.3324
3 7 9 4.0123 -0.2979
3 7 10 -0.5499 -0.3891
3 7 11 -1.8382 -0.5694
3 7 12 0.5065 0.9562
3 7 13 1.9830 1.1938
3 7 14 2.2517 0.6238
3 7 15 3.6334 -0.8257
3 7 16 0.8087 -1.1841
3 7 17 -0.2112 -0.7584
3 7 18 -1.3262 0.7112
3 7 19 0.5680 -0.1296
3 7 20 -2.9598 1.0702
3 7 21 2.1570 1.8129
3 8 0 11.1338 42.9422
3 8 1 2.0036 10.4908
3 8 2 4.2247 -1.4264
3 8 3 1.6034 -0.6395
3 8 4 1.9723 0.3286
3 8 5 3.7473 -2.7514
3 8 6 3.6164 5.3054
3 8 7 -3.0136 1.6628
3 8 8 -2.4830 -3.9091
3 8 9 -3.5942 1.4411
3 8 10 -1.7051 1.0542
3 8 11 1.4727 -2.1948
3 8 12 -0.4718 -4.3742
3 8 13 -2.0525 -0.8415
3 8 14 -3.1996 -1.4968
3 8 15 -1.7360 0.3037
3 8 16 -0.6619 -0.4838
3 8 17 1.0491 -0.5243
3 8 18 0.7957 -1.3199
3 8 19 1.0391 0.5287
3 8 20 -2.5099 -1.6314
3 8 21 2.6844 0.7250
3 9 0 -1.0923 -9.1411
3 9 1 -5.8153 -14.8872
3 9 2 0.7019 -6.2859
3 9 3 1.6568 8.9229
3 9 4 -2.7138 2.1465
3 9 5 -1.4144 -4.1490
3 9 6 -1.6676 2.6278
3 9 7 -2.2213 2.9344
3 9 8 5.5041 -3.1162
3 9 9 1.7431 1.4497
3 9 10 1.0862 1.7747
3 9 11 1.9569 2.0317
3 9 12 -0.4677 2.6385
3 9 13 1.7992 4.7106
3 9 14 1.8970 -1.5206
3 9 15 1.0955 0.1431
3 9 16 -0.7752 1.3669
3 9 17 -0.7601 2.2918
3 9 18 -0.7736 -0.1571
3 9 19 0.1629 1.4830
3 9 20 -1.1782 -2.6572
3 9 21 2.9543 3.3276
3 10 0 3.8076 12.2381
3 10 1 0.0563 7.1295
3 10 2 -0.9822 -4.6415
3 10 3 -0.3861 2.6257
3 10 4 -3.1628 -4.6245
3 10 5 2.4460 -5.5012
3 10 6 1.5194 -0.6142
3 10 7 -1.4785 0.3989
3 10 8 1.7378 -2.4154
3 10 9 -3.6790 1.4351
3 10 10 -1.7934 -0.2340
3 10 11 -0.0303 -3.7585
3 10 12 -2.4594 -2.4600
3 10 13 0.3773 0.4665
3 10 14 -0.8381 -0.8309
3 10 15 0.3793 0.6857
3 10 16 -0.0789 -0.5764
3 10 17 0.5932 -2.0052
3 10 18 0.8123 -1.2820
3 10 19 1.0622 1.8157
3 10 20 -0.4450 -1.7176
3 11 0 -0.7589 -9.7066
3 11 1 0.1236 1.3229
3 11 2 0.4106 -4.5339
3 11 3 3.9377 4.8686
3 11 4 0.5763 4.3465
3 11 5 2.1235 2.8696
3 11 6 -0.3883 2.8361
3 11 7 -2.1622 0.1051
3 11 8 1.5274 -1.5538
3 11 9 -1.1033 0.1042
3 11 10 2.1079 0.9086
3 11 11 2.3855 -0.7813
3 11 12 -1.2006 1.7044
3 11 13 1.8220 -1.2070
3 11 14 -1.9261 -0.9790
3 11 15 0.6429 -0.3940
3 11 16 0.2582 0.1714
3 11 17 -0.0096 -0.7505
3 11 18 -0.7125 1.3501
3 11 19 -0.8875 -0.0042
3 11 20 -2.0213 -1.2882
3 12 0 -0.2770 2.2910
3 12 1 0.4645 11.2732
3 12 2 -2.6153 -0.8882
3 12 3 -1.1605 -4.1967
3 12 4 -3.6604 -1.7328
3 12 5 -1.9106 -3.0657
3 12 6 0.0703 1.3982
3 12 7 0.0399 0.7211
3 12 8 2.3851 0.7334
3 12 9 -1.1912 0.5230
3 12 10 -0.4355 1.2326
3 12 11 -0.0191 -0.0002
3 12 12 -2.5629 3.1718
3 12 13 3.2750 -1.2660
3 12 14 -1.5135 1.8490
3 12 15 0.3827 1.4000
3 12 16 -0.8931 1.6994
3 12 17 -0.6565 0.1693
3 12 18 0.1857 2.2408
3 12 19 1.9468 -2.0545
3 13 0 -0.0226 -23.3389
3 13 1 0.8469 -8.9578
3 13 2 -0.1378 -2.3057
3 13 3 3.2265 1.3906
3 13 4 2.2146 4.8553
3 13 5 1.3969 -4.6645
3 13 6 1.9294 -1.8485
3 13 7 -1.8848 -1.4161
3 13 8 -0.1027 -0.9559
3 13 9 -1.1238 -0.0725
3 13 10 -0.0198 -1.4219
3 13 11 2.3710 -2.4333
3 13 12 -2.9124 0.5392
3 13 13 2.2979 -1.7470
3 13 14 -1.9027 0.2978
3 13 15 1.0675 -2.4467
3 13 16 1.0099 -2.6894
3 13 17 0.8487 -2.3885
3 14 0 0.2392 26.2601
3 14 1 -0.0436 14.4012
3 14 2 -1.4485 1.6005
3 14 3 0.2047 -1.6925
3 14 4 -1.7137 2.1903
3 14 5 -2.2989 -0.2942
3 14 6 0.9592 5.0468
3 14 7 -1.2469 2.5756
3 14 8 2.0324 -2.3569
3 14 9 0.5305 1.7634
3 14 10 -1.5142 0.6374
3 14 11 2.2958 0.3676
3 14 12 -3.5155 -0.6366
3 14 13 2.7258 -0.3641
3 14 14 -0.7551 1.6630
3 14 15 -0.0299 1.7441
3 14 16 -0.5652 2.2920
3 14 17 -0.1578 1.2914
3 15 0 0.2638 -13.7064
3 15 1 -0.1710 -11.7297
3 15 2 -0.9806 -6.8475
3 15 3 0.4025 3.3286
3 15 4 -0.4730 0.6450
3 15 5 -0.4153 -3.7600
3 15 6 1.6143 -0.0225
3 15 7 -1.7353 0.6261
3 15 8 0.8710 -3.2116
3 15 9 -0.3685 2.5133
3 15 10 -1.3952 -0.1360
3 15 11 4.0667 1.8048
3 15 12 -2.5691 0.6141
3 15 13 2.1284 1.2134
3 15 14 -1.2220 -1.6046
3 15 15 -0.8359 -2.1913
3 15 16 0.0992 -0.1241
3 16 0 0.3556 4.6635
3 16 1 0.7050 6.8988
3 16 2 1.0076 -1.5635
3 16 3 1.6373 3.2454
3 16 4 1.6516 -2.8792
3 16 5 0.9891 -3.2510
3 16 6 0.8919 0.2497
3 16 7 -1.7827 1.3408
3 16 8 0.8861 -1.7219
3 16 9 -1.0752 1.7157
3 16 10 -2.1340 -2.6886
3 16 11 1.3797 -2.5958
3 16 12 -4.0303 -1.9132
3 16 13 1.5246 1.0405
3 16 14 0.3015 0.4277
3 16 15 0.5168 0.1209
3 17 0 -1.4248 -6.2873
3 17 1 -0.8156 8.2982
3 17 2 -0.9072 -3.2403
3 17 3 -2.8733 2.5371
3 17 4 -2.1412 3.7752
3 17 5 -1.9529 3.5120
3 17 6 -0.2071 2.2331
3 17 7 0.1823 -0.8138
3 17 8 3.3406 -2.2037
3 17 9 0.7891 0.5652
3 17 10 1.0628 2.3054
3 17 11 3.2548 0.9765
3 17 12 -0.6958 2.1792
3 17 13 1.8151 0.1916
3 17 14 -0.4494 -0.6486
3 18 0 0.6132 -18.1635
3 18 1 1.3811 7.7599
3 18 2 2.0428 -4.2981
3 18 3 0.6115 -5.3906
3 18 4 3.0772 -1.5933
3 18 5 1.6370 -4.8334
3 18 6 0.4797 -0.9758
3 18 7 -2.5918 1.0446
3 18 8 -1.3647 3.4871
3 18 9 -3.5373 -0.7842
3 18 10 -2.0416 1.9665
3 18 11 -0.6144 -3.6568
3 18 12 -2.1529 0.7072
3 18 13 -0.4297 -1.7824
3 19 0 -2.1977 -20.2349
3 19 1 -1.1315 8.2575
3 19 2 -0.1575 -0.0878
3 19 3 -1.8655 -1.7702
3 19 4 -0.1160 8.2633
3 19 5 -1.5084 0.4153
3 19 6 0.7942 1.0273
3 19 7 0.5106 -2.7337
3 19 8 3.6015 0.3598
3 19 9 2.0907 -5.9953
3 19 10 1.8404 2.5155
3 19 11 1.8198 -3.0278
3 20 0 1.2391 -1.2589
3 20 1 1.5375 12.6212
3 20 2 0.6746 2.6468
3 20 3 -1.2623 -5.0914
3 20 4 0.3224 2.4760
3 20 5 -1.0522 -5.0264
3 20 6 0.8131 0.4775
3 20 7 -1.8981 -1.9289
3 20 8 -0.6793 5.4720
3 21 0 -2.1407 -12.9919
3 21 1 -0.8749 -5.9546
3 21 2 0.3592 -4.2434
3 21 3 0.6399 -4.6622
3 21 4 1.9546 4.5193
3 21 5 0.0645 0.8098
4 0 0 10.8301 -46.8131
4 0 2 0.1659 -25.6197
4 0 4 -0.9874 -14.0535
4 0 6 10.8991 -18.8096
4 0 8 3.7336 -17.5014
4 0 10 -6.7707 -19.7560
4 0 12 -1.7373 -14.9495
4 0 14 3.4342 -13.8107
4 0 16 1.2955 -15.1551
4 0 18 -0.3670 -11.9357
4 0 20 -3.2486 -10.6221
4 0 22 -2.5930 -8.3020
4 1 0 -10.0313 11.5378
4 1 1 -5.5350 28.6742
4 1 2 -2.2142 4.2420
4 1 3 3.3067 9.6462
4 1 4 2.3253 0.7559
4 1 5 -6.0048 14.8815
4 1 6 -1.7878 6.6012
4 1 7 -9.3760 10.2969
4 1 8 0.1021 2.5130
4 1 9 2.3795 14.1559
4 1 10 0.6812 5.7164
4 1 11 4.9587 12.9986
4 1 12 0.0074 5.4033
4 1 13 -1.7538 8.7465
4 1 14 1.4808 2.4697
4 1 15 -2.5277 11.4503
4 1 16 0.3533 4.8501
4 1 17 -0.3126 9.5760
4 1 18 -0.9262 3.2269
4 1 19 1.3930 7.0969
4 1 20 -3.3886 3.8929
4 1 21 3.0286 6.7580
4 1 22 -2.9967 7.8773
4 2 0 2.3384 -34.1390
4 2 1 12.8825 -9.6068
4 2 2 -1.6925 -5.1693
4 2 3 -3.4727 4.1741
4 2 4 1.2628 -7.4308
4 2 5 0.1015 -3.8010
4 2 6 9.0251 -5.4513
4 2 7 3.1316 -0.4970
4 2 8 3.8033 -4.3246
4 2 9 -1.6584 -0.4165
4 2 10 -3.4001 -8.2315
4 2 11 0.0312 -5.7557
4 2 12 -1.3488 -2.6021
4 2 13 -1.7698 -1.0900
4 2 14 2.1722 -4.7436
4 2 15 -1.8429 -2.5057
4 2 16 1.0909 -4.9072
4 2 17 0.8912 -1.9359
4 2 18 -0.3878 -2.4708
4 2 19 2.0777 -1.4808
4 2 20 -1.1890 -1.6180
4 2 21 4.9557 -4.0910
4 2 22 -0.9830 -4.1431
4 3 0 -19.1923 6.3016
4 3 1 4.8576 12.7941
4 3 2 -3.6865 0.8809
4 3 3 0.4405 -2.1328
4 3 4 4.8804 1.8768
4 3 5 -6.1794 1.4077
4 3 6 -4.7309 2.0679
4 3 7 -5.6886 -1.5465
4 3 8 -1.1494 -2.6031
4 3 9 -0.1228 2.3030
4 3 10 1.5312 2.6633
4 3 11 2.0999 -1.5687
4 3 12 0.7383 1.9452
4 3 13 0.4531 -1.4343
4 3 14 3.0892 -0.0782
4 3 15 -1.1078 0.7986
4 3 16 -0.5292 1.4304
4 3 17 -0.2702 -1.2922
4 3 18 -0.6621 -0.0147
4 3 19 0.5425 -2.3553
4 3 20 -0.7749 1.1560
4 3 21 -0.2831 -0.6774
4 3 22 -2.9479 0.9528
4 4 0 -11.8377 -24.8804
4 4 1 11.5779 -0.0430
4 4 2 -4.3960 -0.7046
4 4 3 -4.6421 -6.5792
4 4 4 4.8726 5.6974
4 4 5 -0.4176 -2.4405
4 4 6 4.8173 2.9963
4 4 7 5.1833 0.5095
4 4 8 1.0465 0.8876
4 4 9 -0.8871 0.2688
4 4 10 -1.5114 2.6555
4 4 11 -1.5909 -1.2356
4 4 12 -2.3946 4.7354
4 4 13 -2.1177 -0.0480
4 4 14 -1.1774 1.3646
4 4 15 -0.7519 0.4654
4 4 16 0.9365 2.2006
4 4 17 1.3044 -0.7458
4 4 18 -0.2098 3.5039
4 4 19 -2.7252 0.9086
4 4 20 -0.2063 3.4871
4 4 21 -1.4854 1.4025
4 5 0 -8.3355 -7.1883
4 5 1 12.0015 16.3322
4 5 2 -0.5546 6.4481
4 5 3 -2.8244 -7.2662
4 5 4 5.2214 4.5654
4 5 5 -4.8717 -5.4712
4 5 6 -2.1318 -0.7700
4 5 7 -0.3489 -0.8368
4 5 8 -3.0807 0.7440
4 5 9 1.8483 -1.5052
4 5 10 2.4971 -1.0800
4 5 11 3.1964 -4.0192
4 5 12 2.0798 0.5156
4 5 13 3.3440 -2.3994
4 5 14 0.2113 -0.8812
4 5 15 0.4123 -0.9147
4 5 16 -1.0357 -0.1935
4 5 17 -1.4171 -1.7427
4 5 18 1.6713 0.3159
4 5 19 0.9455 -3.2998
4 5 20 4.9061 -3.5688
4 5 21 -0.4410 -1.1508
4 6 0 -15.1108 -28.3333
4 6 1 -0.0101 -1.4984
4 6 2 -2.9871 -2.6766
4 6 3 -3.3686 -1.7055
4 6 4 5.6950 8.0823
4 6 5 -4.3783 1.1205
4 6 6 0.3523 0.5936
4 6 7 2.0680 0.6871
4 6 8 -2.0608 -0.1442
4 6 9 0.5559 0.9841
4 6 10 -3.5651 1.2856
4 6 11 -3.6221 0.9016
4 6 12 -4.0119 1.9197
4 6 13 0.3488 0.0391
4 6 14 -2.0287 0.2696
4 6 15 1.5216 0.9917
4 6 16 1.6045 -0.8924
4 6 17 -0.6880 -0.3452
4 6 18 0.9536 0.9671
4 6 19 -3.0984 1.8319
4 6 20 -1.1481 1.2278
4 6 21 -3.3743 5.6159
4 7 0 5.0667 11.4012
4 7 1 8.3659 16.0005
4 7 2 2.3039 -5.0373
4 7 3 -3.9636 -4.9348
4 7 4 4.2896 -4.5086
4 7 5 -1.8023 -2.6911
4 7 6 4.1643 -0.7263
4 7 7 1.8608 1.4280
4 7 8 -1.4727 -3.3054
4 7 9 2.5079 1.0091
4 7 10 1.8047 0.0237
4 7 11 3.6146 -0.7888
4 7 12 1.3563 -1.0634
4 7 13 1.9707 -0.4106
4 7 14 -2.3623 -0.0554
4 7 15 -0.7185 1.8479
4 7 16 0.0945 -0.3682
4 7 17 -2.3024 0.8981
4 7 18 1.1336 -0.5838
4 7 19 -0.2194 -0.0182
4 7 20 1.1511 -3.1966
4 7 21 0.6229 1.3699
4 8 0 -6.7513 -17.0129
4 8 1 -4.9511 -4.9204
4 8 2 -0.1396 -4.6565
4 8 3 -1.3608 12.2389
4 8 4 2.8172 3.4244
4 8 5 -5.0354 -1.0550
4 8 6 -1.1633 0.5809
4 8 7 -2.9392 3.6811
4 8 8 -1.4189 -3.1591
4 8 9 0.0644 0.9727
4 8 10 -1.6950 -0.3109
4 8 11 -1.1144 -0.8620
4 8 12 -0.8369 1.4927
4 8 13 1.0020 1.5316
4 8 14 0.8309 -1.9465
4 8 15 0.5237 -1.4467
4 8 16 1.9628 -0.8073
4 8 17 -0.6079 1.5243
4 8 18 1.6464 -0.1613
4 8 19 0.6140 0.0502
4 8 20 -0.0021 -2.2957
4 9 0 4.2807 14.3705
4 9 1 1.6759 7.5495
4 9 2 1.5523 -5.8272
4 9 3 -1.7994 3.2860
4 9 4 1.1942 -1.9153
4 9 5 -0.1640 -4.1725
4 9 6 3.9220 1.5829
4 9 7 1.4779 2.0236
4 9 8 2.3845 -2.4890
4 9 9 0.3333 3.1901
4 9 10 0.0431 2.7359
4 9 11 -1.3037 -2.6934
4 9 12 -0.3829 -1.0115
4 9 13 -1.5498 0.7543
4 9 14 0.5336 0.8673
4 9 15 -1.6883 1.5045
4 9 16 0.6730 0.0896
4 9 17 -1.5535 -1.7200
4 9 18 -0.5679 -0.8476
4 9 19 -0.4701 2.1265
4 9 20 -0.9950 0.3056
4 10 0 -0.5769 -0.7543
4 10 1 -0.8621 -2.5838
4 10 2 0.6911 -8.5312
4 10 3 0.2405 -2.1568
4 10 4 1.2712 1.0342
4 10 5 -0.2047 -2.9373
4 10 6 -1.0347 3.0430
4 10 7 -2.8618 -0.8301
4 10 8 -1.4243 -4.7344
4 10 9 -1.9539 -1.6997
4 10 10 2.4735 0.7327
4 10 11 0.5175 -1.2324
4 10 12 3.0635 1.5480
4 10 13 -1.1656 -0.0679
4 10 14 1.2729 -2.0694
4 10 15 -1.8520 -0.5059
4 10 16 1.5134 1.1610
4 10 17 -0.0428 0.7659
4 10 18 -0.1221 0.8117
4 10 19 0.2311 -0.9335
4 10 20 -0.3670 -3.8057
4 11 0 -1.3951 -5.9119
4 11 1 -0.3376 5.4250
4 11 2 -0.8883 6.7860
4 11 3 -1.6312 4.8563
4 11 4 -1.5993 5.1593
4 11 5 -0.8458 -4.8148
4 11 6 -0.5305 1.2449
4 11 7 2.3394 2.2000
4 11 8 2.3519 2.3649
4 11 9 -0.4033 2.1169
4 11 10 1.1517 0.5020
4 11 11 -4.2210 -1.3453
4 11 12 1.0025 1.1330
4 11 13 -1.5143 0.5134
4 11 14 2.4730 -0.3822
4 11 15 -0.9400 0.9994
4 11 16 1.0582 -0.7916
4 11 17 -0.2071 -1.0213
4 11 18 0.3586 0.5329
4 11 19 1.7384 0.6333
4 12 0 0.7843 -4.9771
4 12 1 2.1270 0.9136
4 12 2 1.0168 -6.3972
4 12 3 1.9170 -5.6049
4 12 4 2.0281 3.1868
4 12 5 2.2341 -0.7788
4 12 6 -0.3163 0.9916
4 12 7 0.4315 -0.8085
4 12 8 -2.1333 -3.0643
4 12 9 -1.2948 0.1561
4 12 10 2.3602 -0.0065
4 12 11 -1.5281 -0.2514
4 12 12 2.6544 0.0391
4 12 13 -2.2144 -0.2253
4 12 14 0.3325 -0.3911
4 12 15 -1.4909 1.6489
4 12 16 0.4147 -1.8057
4 12 17 -0.5656 -0.2933
4 12 18 -1.5779 0.9146
4 12 19 -0.4085 -0.7945
4 13 0 -1.9405 2.8664
4 13 1 -1.5444 6.6776
4 13 2 -2.3885 -2.8844
4 13 3 -0.4347 0.1506
4 13 4 -2.2147 -0.7844
4 13 5 -1.6878 -4.8643
4 13 6 -1.6764 -0.2819
4 13 7 0.8865 2.6452
4 13 8 -1.0229 -2.2155
4 13 9 0.8800 1.2354
4 13 10 0.5080 -0.3438
4 13 11 -2.2502 -0.3290
4 13 12 1.7366 -0.2235
4 13 13 -0.9046 -0.5566
4 13 14 1.5035 -0.8056
4 13 15 0.2104 1.8267
4 13 16 0.3631 -0.0958
4 14 0 3.3953 -0.9582
4 14 1 1.5160 -1.8216
4 14 2 -0.3020 -5.4023
4 14 3 2.2356 8.9328
4 14 4 -0.5538 4.5715
4 14 5 1.0086 -0.6952
4 14 6 1.6390 3.1373
4 14 7 1.7650 2.7288
4 14 8 -0.8749 -3.7535
4 14 9 1.8986 1.5105
4 14 10 0.3475 0.9099
4 14 11 0.2536 -0.1942
4 14 12 1.4235 1.6158
4 14 13 -1.0251 0.6562
4 14 14 -0.6625 -0.3845
4 14 15 -0.6780 -1.6538
4 14 16 -1.0751 -1.9218
4 14 17 0.6109 0.1800
4 15 0 -0.3921 12.9726
4 15 1 -2.0699 -0.1096
4 15 2 -1.2823 -5.8066
4 15 3 3.1162 5.0719
4 15 4 -0.2618 -3.2980
4 15 5 0.1749 -8.5384
4 15 6 -0.3240 1.0957
4 15 7 -1.2699 0.8838
4 15 8 -2.5520 -2.1559
4 15 9 -0.4574 2.3533
4 15 10 -2.4336 0.8541
4 15 11 -1.4308 -3.9912
4 15 12 -0.9764 -0.1020
4 15 13 0.7846 -1.0798
4 15 14 0.8780 2.8197
4 15 15 2.1087 0.8288
4 15 16 -0.0012 1.4816
4 16 0 2.7100 13.3424
4 16 1 0.1359 -3.1832
4 16 2 -1.4514 -7.6766
4 16 3 -0.5214 1.0801
4 16 4 -3.4858 1.4989
4 16 5 -1.6789 -1.0389
4 16 6 0.1400 6.8467
4 16 7 1.1478 -0.7874
4 16 8 2.3707 -4.7506
4 16 9 2.7478 -0.3363
4 16 10 2.8530 2.5901
4 16 11 2.4358 -1.1036
4 16 12 -0.2465 4.2552
4 16 13 0.5608 -2.9390
4 16 14 -3.1519 0.3506
4 17 0 -0.0775 -4.8774
4 17 1 -0.7127 -2.1222
4 17 2 0.6066 4.9097
4 17 3 2.8297 6.8319
4 17 4 2.8639 2.3578
4 17 5 2.7841 -6.8141
4 17 6 1.3679 0.4083
4 17 7 -1.6890 1.4128
4 17 8 -1.8641 1.1353
4 17 9 -5.3094 2.2525
4 17 10 -2.0689 0.5331
4 17 11 -1.9284 -5.3053
4 17 12 -1.6557 3.3657
4 17 13 3.0268 -3.0697
4 18 0 0.8182 2.8025
4 18 1 0.3889 2.4621
4 18 2 -0.4282 -5.4537
4 18 3 -1.9000 -6.2869
4 18 4 -2.4968 1.3097
4 18 5 -3.0786 1.0966
4 18 6 -0.9899 1.5383
4 18 7 -0.0493 0.7575
4 18 8 5.0636 -4.7179
4 18 9 1.4574 0.2644
4 18 10 5.0024 1.8344
4 18 11 1.3665 -2.6264
4 18 12 -1.2948 4.7472
4 19 0 -1.6369 -7.3766
4 19 1 -0.5448 5.4341
4 19 2 -0.3264 2.2490
4 19 3 0.1806 1.8158
4 19 4 1.9499 0.5942
4 19 5 1.2684 -2.0482
4 19 6 1.6614 -4.0791
4 19 7 -1.9260 3.8011
4 19 8 -0.2648 -2.7690
4 19 10 -1.2584 1.3332
4 20 0 0.3581 -5.9049
4 20 1 2.2404 -0.5428
4 20 2 0.9661 -5.6537
4 20 3 0.3316 -0.2516
4 20 4 0.7013 0.6009
4 20 5 -0.7845 3.5548
4 20 6 -0.0691 -0.2283
4 20 7 -1.0310 5.8943
5 0 1 -13.9020 18.2787
5 0 3 2.8505 -2.3891
5 0 5 -5.2501 -5.5160
5 0 7 -11.2418 -4.7453
5 0 9 -0.4208 -4.2213
5 0 11 -0.6807 -5.0618
5 0 13 -3.6121 -7.7923
5 0 15 -1.8976 -4.6081
5 0 17 0.5695 -2.9570
5 0 19 3.7892 -5.0779
5 0 21 0.1870 -5.3874
5 1 0 16.4006 -20.9465
5 1 1 1.5988 -11.9528
5 1 2 3.3104 -0.7642
5 1 3 2.8937 2.6334
5 1 4 -2.2873 3.5047
5 1 5 -1.4363 -0.6754
5 1 6 9.5783 3.2776
5 1 7 -1.5337 -0.4297
5 1 8 5.4673 4.0976
5 1 9 1.3893 1.6510
5 1 10 -0.6890 1.9236
5 1 11 0.4814 2.5854
5 1 12 2.8809 6.1356
5 1 13 -1.1088 0.1710
5 1 14 2.6719 4.6192
5 1 15 -0.4866 1.9261
5 1 16 0.9593 2.4240
5 1 17 0.0959 0.8140
5 1 18 -2.4334 2.7651
5 1 19 1.2911 2.6327
5 1 20 -2.0192 4.0029
5 1 21 3.1341 2.2537
5 1 22 1.4783 2.4994
5 2 0 -1.8680 22.4848
5 2 1 -7.9469 5.7997
5 2 2 -4.9765 3.3103
5 2 3 3.6482 -6.3666
5 2 4 -2.1837 0.9582
5 2 5 -0.8517 -1.9579
5 2 6 2.8702 3.9949
5 2 7 -6.5546 -3.8797
5 2 8 -1.0158 0.4481
5 2 9 -1.5493 0.0910
5 2 10 -3.2154 -0.8821
5 2 11 -1.2691 -2.2851
5 2 12 0.0832 0.0976
5 2 13 -2.7825 -3.2977
5 2 14 1.4331 0.1189
5 2 15 -1.6351 -0.2249
5 2 16 -0.7892 -0.5025
5 2 17 0.6636 -1.2904
5 2 18 -0.9657 0.3178
5 2 19 2.1392 -0.8279
5 2 20 -2.8181 -0.0860
5 2 21 -0.8995 -1.9147
5 2 22 -3.2748 0.5080
5 3 0 3.9734 -13.8887
5 3 1 3.6270 2.3665
5 3 2 -0.9080 3.1334
5 3 3 5.6488 0.8337
5 3 4 -4.5762 5.2869
5 3 5 0.3411 0.4023
5 3 6 0.7464 2.6569
5 3 7 -0.0859 -0.9962
5 3 8 3.3090 -0.2721
5 3 9 4.4654 1.0524
5 3 10 1.3053 -1.3404
5 3 11 3.8732 1.4743
5 3 12 1.7185 1.8248
5 3 13 -0.7385 -0.1449
5 3 14 1.9447 -1.6994
5 3 15 0.5142 1.4579
5 3 16 0.1480 -0.6003
5 3 17 2.5684 0.2792
5 3 18 -1.8453 -0.5608
5 3 19 0.4307 -0.8216
5 3 20 -0.5357 -0.6505
5 3 21 1.6529 -1.0629
5 4 0 -1.7915 -31.6256
5 4 1 2.3900 10.5275
5 4 2 -4.2062 -6.1411
5 4 3 3.4949 -3.8553
5 4 4 -3.7906 -4.0285
5 4 5 4.5214 -3.9264
5 4 6 -1.1979 -5.6933
5 4 7 -0.6375 0.6514
5 4 8 -3.3134 0.8591
5 4 9 -2.5931 2.8065
5 4 10 -5.9451 -4.3286
5 4 11 -0.5348 -0.0543
5 4 12 -2.8354 -0.7106
5 4 13 -1.4630 1.1223
5 4 14 0.0902 -2.0087
5 4 15 -0.7230 2.2648
5 4 16 -3.0035 -2.5590
5 4 17 1.6037 0.4417
5 4 18 -1.2576 0.1545
5 4 19 2.2723 1.9862
5 4 20 2.0462 0.0356
5 4 21 0.7752 -0.1760
5 5 0 -6.6744 -21.4356
5 5 1 0.0066 25.1130
5 5 2 -3.1795 -7.7037
5 5 3 2.8730 -1.4580
5 5 4 -3.5414 3.5578
5 5 5 2.3913 11.2199
5 5 6 -3.4339 -0.0459
5 5 7 2.1584 0.6790
5 5 8 2.3167 -2.9473
5 5 9 4.2744 1.6720
5 5 10 0.8961 -1.2801
5 5 11 4.6146 3.5756
5 5 12 -0.0948 0.1348
5 5 13 1.3546 -0.2891
5 5 14 1.1077 -1.2870
5 5 15 1.0826 4.1993
5 5 16 -0.8983 -0.6394
5 5 17 1.6513 0.4872
5 5 18 -2.5145 -0.8921
5 5 19 -1.8763 0.7566
5 5 20 -3.5196 -0.8180
5 5 21 -3.4744 -0.7646
5 6 0 3.8633 -29.4540
5 6 1 6.0179 19.0428
5 6 2 1.0890 1.3847
5 6 3 1.2670 1.5760
5 6 4 -1.3017 -2.1895
5 6 5 3.2917 -0.8987
5 6 6 -0.5863 -4.4764
5 6 7 0.2207 2.2208
5 6 8 -1.3815 2.8507
5 6 9 -2.0849 1.7155
5 6 10 -2.8573 -2.9211
5 6 11 0.7675 -0.3609
5 6 12 -1.9518 1.2120
5 6 13 -0.3338 -1.0632
5 6 14 -0.2128 -1.2512
5 6 15 -0.1704 0.2743
5 6 16 0.8969 -1.6599
5 6 17 1.1911 0.1106
5 6 18 1.5459 0.7333
5 6 19 3.1965 0.2908
5 6 20 2.5557 0.2446
5 7 0 -5.1758 -22.7553
5 7 1 -4.7029 -1.8781
5 7 2 -2.1855 -7.0324
5 7 3 -1.0650 -6.7127
5 7 4 -0.9981 1.7140
5 7 5 -0.6778 -0.6664
5 7 6 -1.2153 -0.4239
5 7 7 -1.7547 -3.6587
5 7 8 1.4657 -1.7100
5 7 9 0.1211 -0.9919
5 7 10 0.5582 -0.2618
5 7 11 0.8837 -1.3438
5 7 12 -0.4664 2.4259
5 7 13 -0.3619 -1.8134
5 7 14 0.4600 0.7606
5 7 15 -2.5428 -0.0185
5 7 16 0.4747 -0.4751
5 7 17 -4.0411 -0.8842
5 7 18 -0.3993 0.4166
5 7 19 -1.6687 -2.3766
5 7 20 -3.0976 0.1046
5 8 0 4.4534 8.7531
5 8 1 0.9223 9.7038
5 8 2 3.1297 8.2930
5 8 3 1.0198 -1.6106
5 8 4 0.8889 5.4938
5 8 5 0.3781 -3.2852
5 8 6 2.4288 5.5305
5 8 7 -0.4230 0.5788
5 8 8 2.8877 2.5252
5 8 9 -1.1381 1.9144
5 8 10 -0.1831 1.8857
5 8 11 -0.6672 -2.2732
5 8 12 0.5214 2.2007
5 8 13 -0.0642 -1.8116
5 8 14 2.9172 1.9285
5 8 15 -1.3951 1.3682
5 8 16 5.2092 1.4907
5 8 17 -2.1184 -0.1526
5 8 18 3.9511 2.2303
5 8 19 -0.3944 -0.1080
5 8 20 0.1684 5.0453
5 9 0 3.2034 -6.5596
5 9 1 -1.8746 -1.8609
5 9 2 0.5571 -1.3255
5 9 3 -1.6084 -5.5385
5 9 4 -0.7492 5.1675
5 9 5 -0.0702 -2.8128
5 9 6 0.2205 3.3997
5 9 7 -3.0028 -3.3408
5 9 8 0.4105 -3.1040
5 9 9 -1.3559 -0.8491
5 9 10 1.9072 -0.0909
5 9 11 1.1350 -0.8770
5 9 12 0.9317 2.7155
5 9 13 -2.0212 -1.4480
5 9 14 1.0607 -1.4923
5 9 15 -4.2227 -1.7972
5 9 16 3.6288 -1.2938
5 9 17 -4.9951 -1.0410
5 9 18 2.6959 0.6715
5 9 19 -2.1793 -4.7081
5 10 0 -1.3106 -24.8444
5 10 1 -4.4078 3.5047
5 10 2 0.9913 1.3500
5 10 3 -0.5554 -0.7883
5 10 4 -0.6018 -0.4234
5 10 5 0.6232 -6.0632
5 10 6 -1.0162 -2.6841
5 10 7 0.4998 1.0009
5 10 8 1.6908 2.3507
5 10 9 -1.5509 3.0630
5 10 10 -1.5003 -2.5750
5 10 11 -2.4429 -1.8056
5 10 12 -0.9037 0.2099
5 10 13 -1.0273 -0.2360
5 10 14 2.1229 0.2504
5 10 15 -3.6346 2.3663
5 10 16 3.2673 0.0000
5 10 17 -4.0444 0.0629
5 10 18 3.6082 2.3331
5 10 19 -1.8057 -0.9233
5 11 0 5.3817 -6.4359
5 11 1 1.5398 20.7963
5 11 2 3.7116 -5.3429
5 11 3 -0.3590 -4.7217
5 11 4 0.0708 2.9323
5 11 5 3.1989 10.0089
5 11 6 -1.8424 1.6473
5 11 7 1.6945 -0.2289
5 11 8 0.0649 -3.3527
5 11 9 0.8244 1.1010
5 11 10 2.4293 -0.3184
5 11 11 2.3558 3.3843
5 11 12 1.8714 1.4201
5 11 13 0.8299 -0.2207
5 11 14 3.0280 -0.6405
5 11 15 -0.4864 2.6094
5 11 16 4.5480 -2.0950
5 11 17 -2.3116 -1.3649
5 11 18 1.7248 1.4660
5 12 0 -2.0426 -33.8152
5 12 1 -4.5420 11.0630
5 12 2 -0.0760 0.2977
5 12 3 -1.9155 2.1212
5 12 4 -1.7024 -2.6989
5 12 5 1.8533 -2.1322
5 12 6 -4.1894 -6.6154
5 12 7 1.7289 2.2909
5 12 8 -2.2900 2.3998
5 12 9 -0.5170 1.0009
5 12 10 -1.7067 -3.5678
5 12 11 -1.6607 -1.1261
5 12 12 -1.8784 -0.6449
5 12 13 -3.1153 -1.6548
5 12 14 -1.9466 -2.8175
5 12 15 -4.2348 1.8002
5 12 16 -0.2336 -0.6598
5 12 17 -1.9930 1.4383
5 12 18 1.3538 2.7498
5 13 0 4.6839 -14.9166
5 13 1 0.5157 4.9509
5 13 2 2.1172 -7.3555
5 13 3 0.4013 -3.4031
5 13 4 -1.5075 2.4161
5 13 5 3.1553 3.0780
5 13 6 -1.9615 -0.0380
5 13 7 3.6367 -0.1826
5 13 8 -1.6306 -1.5754
5 13 9 1.9378 -0.8434
5 13 10 -0.6316 1.2377
5 13 11 0.8847 0.9180
5 13 12 2.6975 2.1366
5 13 13 1.9638 1.7232
5 13 14 4.2790 0.2729
5 13 15 2.1276 1.5826
5 13 16 1.9532 -3.5040
5 13 17 0.3454 -2.7750
5 14 0 0.0683 10.0034
5 14 1 -3.5424 9.4691
5 14 2 -0.1617 2.2706
5 14 3 2.4867 0.5360
5 14 4 -1.5908 2.2879
5 14 5 2.1201 -4.9415
5 14 6 -2.7305 0.9230
5 14 7 1.5922 0.9274
5 14 8 -2.3306 0.8888
5 14 9 3.0556 0.0668
5 14 10 -0.5343 2.1861
5 14 11 -0.6198 -2.2820
5 14 12 -0.1621 -1.0832
5 14 13 -4.1307 -0.9140
5 14 14 -1.7832 -0.8925
5 14 15 -2.1440 2.6406
5 15 0 5.1611 -1.8053
5 15 1 -0.1835 -7.3101
5 15 2 -0.7512 -4.9629
5 15 3 1.1127 -0.2867
5 15 4 -3.7734 5.2243
5 15 5 1.3271 -2.9039
5 15 6 -0.9327 4.2001
5 15 7 1.5029 0.4971
5 15 8 -2.9061 -2.5893
5 15 9 0.8967 -2.2406
5 15 10 -1.4816 0.9876
5 15 11 -1.0849 -1.2163
5 15 12 2.9897 0.7141
5 15 13 -0.0226 0.6322
5 15 14 2.2836 -1.7131
5 15 15 1.2126 -2.3382
5 16 0 0.7219 1.6368
5 16 1 -3.1201 1.8678
5 16 2 -0.8701 -0.0052
5 16 3 2.9764 1.4179
5 16 4 -0.9740 0.8593
5 16 5 1.7148 -7.1110
5 16 6 -0.0656 -1.0788
5 16 7 1.3961 1.8711
5 16 8 -1.1565 -0.3715
5 16 9 1.5406 2.9599
5 16 10 1.0049 1.3768
5 16 11 -1.9762 0.0060
5 16 12 1.8577 0.6199
5 16 13 -2.0538 1.7226
5 17 0 4.2752 0.4227
5 17 1 -0.3504 6.5074
5 17 2 0.5002 -5.0968
5 17 3 1.5503 -1.6778
5 17 4 -1.5601 2.9618
5 17 5 -0.7107 1.6614
5 17 6 -0.5776 0.3308
5 17 7 0.5584 2.0179
5 17 8 -0.5508 -6.3830
5 17 9 0.5815 0.9404
5 17 10 1.9130 -2.4489
5 17 11 -2.7668 -0.5164
5 17 12 2.1741 -2.0489
5 18 0 1.5782 -13.5421
5 18 1 -2.9562 7.3324
5 18 2 -1.0463 0.2452
5 18 3 0.2316 1.7611
5 18 4 -0.3737 2.5015
5 18 5 -0.3006 -0.6347
5 18 6 0.7026 -1.3216
5 18 7 -0.2789 6.8625
5 18 8 -1.8948 -2.3018
5 18 9 -1.6744 5.8511
5 18 10 1.2648 -1.7910
5 19 0 3.3251 -12.4693
5 19 1 -0.8640 -0.6323
5 19 2 0.8135 -5.4884
5 19 3 1.4079 -5.0023
5 19 4 0.5786 0.1247
5 19 5 -0.3564 -4.6627
5 19 6 1.4351 -3.9873
5 19 8 0.9647 -7.2518
5 19 9 1.0672 3.5124
5 20 0 1.4171 11.1788
5 20 1 -1.4395 8.1705
5 20 2 -0.3554 6.3094
5 20 3 -0.0466 2.0604
5 20 4 -0.8764 8.2472
5 20 5 -1.7903 0.3783
6 0 0 -0.9972 19.5281
6 0 2 -1.7023 12.6705
6 0 4 -3.0321 19.8072
6 0 6 -0.9153 23.5632
6 0 8 2.0741 13.1689
6 0 10 2.5859 13.4672
6 0 12 0.8042 11.5240
6 0 14 -0.7536 11.6938
6 0 16 0.7390 9.1688
6 0 18 0.5590 6.6387
6 0 20 1.7959 9.6066
6 1 0 0.4002 12.1492
6 1 1 0.4464 -13.7834
6 1 2 -4.2161 3.1069
6 1 3 2.4287 -11.4096
6 1 4 -2.7620 0.8898
6 1 5 2.6342 -17.9934
6 1 6 1.7627 3.2288
6 1 7 -0.3088 -13.3940
6 1 8 -2.4705 2.4519
6 1 9 -2.5187 -8.9977
6 1 10 -0.1427 2.6611
6 1 11 -1.9718 -9.7548
6 1 12 3.4178 2.8240
6 1 13 1.0188 -8.6046
6 1 14 0.4096 2.5776
6 1 15 0.6264 -7.3193
6 1 16 -0.2441 0.5528
6 1 17 -0.6025 -5.5422
6 1 18 -0.7643 2.5984
6 1 19 -1.0346 -6.4449
6 1 20 -2.0948 -0.5929
6 1 21 -2.8137 -5.6096
6 2 0 2.1864 0.2837
6 2 1 2.2580 -8.1986
6 2 2 -0.2437 1.5351
6 2 3 8.2256 1.6131
6 2 4 -3.0053 5.5816
6 2 5 -0.5866 -1.5242
6 2 6 -2.0872 6.8198
6 2 7 -0.1006 0.2611
6 2 8 0.9120 3.1268
6 2 9 3.7702 0.0064
6 2 10 2.7353 3.5915
6 2 11 -4.0417 -1.2370
6 2 12 -0.5559 5.2550
6 2 13 -3.9456 -0.8196
6 2 14 -2.6491 3.3750
6 2 15 0.4209 -0.5828
6 2 16 -0.7251 1.8459
6 2 17 0.8889 0.3240
6 2 18 0.3908 3.3672
6 2 19 2.2685 -1.9839
6 2 20 2.6930 2.6396
6 2 21 2.2329 1.5537
6 3 0 -0.4567 -2.1229
6 3 1 -3.9118 9.5915
6 3 2 -6.8905 1.6843
6 3 3 1.1455 5.8774
6 3 4 -5.2102 2.0722
6 3 5 3.0911 0.1012
6 3 6 2.3764 0.1364
6 3 7 1.0192 3.3364
6 3 8 -2.3530 -0.1266
6 3 9 -2.1753 2.3499
6 3 10 -0.1380 0.4225
6 3 11 -0.4678 -0.1045
6 3 12 5.9241 0.6693
6 3 13 3.2185 -1.3474
6 3 14 2.3251 0.9802
6 3 15 2.3879 2.0199
6 3 16 -1.2240 0.3057
6 3 17 1.1670 0.3161
6 3 18 -1.9812 1.0774
6 3 19 -1.4818 -0.0806
6 3 20 -1.3205 2.4576
6 3 21 -2.5462 1.2625
6 4 0 6.8175 -8.1516
6 4 1 1.9325 8.7311
6 4 2 3.0446 -13.3008
6 4 3 6.2903 -8.8345
6 4 4 -2.0366 -2.8182
6 4 5 0.8093 0.0194
6 4 6 -1.8654 -4.0174
6 4 7 -1.8485 -1.8130
6 4 8 1.7105 -6.1062
6 4 9 0.9287 -1.6574
6 4 10 1.0675 -2.8580
6 4 11 -2.6281 -0.3240
6 4 12 -2.7273 -1.0409
6 4 13 -4.7007 -1.9469
6 4 14 -2.2513 -1.7603
6 4 15 -0.9731 -0.8166
6 4 16 -1.9233 -3.4898
6 4 17 1.9076 -1.7566
6 4 18 -0.7761 -0.9096
6 4 19 1.0705 -1.5126
6 4 20 1.7471 -2.9055
6 5 0 0.8623 -25.2469
6 5 1 -5.9051 6.1486
6 5 2 -1.9064 6.0150
6 5 3 -0.9192 5.1995
6 5 4 -2.9293 5.1846
6 5 5 1.6357 -2.2778
6 5 6 1.8929 -1.3985
6 5 7 -1.5929 4.6554
6 5 8 2.7192 4.7355
6 5 9 -2.6431 2.8263
6 5 10 0.3954 -0.6052
6 5 11 2.0210 1.6406
6 5 12 2.3793 2.0964
6 5 13 1.6632 0.9074
6 5 14 3.3374 0.6070
6 5 15 0.1761 2.6217
6 5 16 0.5704 1.4002
6 5 17 1.5439 1.6674
6 5 18 -1.4053 1.0260
6 5 19 -0.0102 1.3424
6 5 20 0.3484 -0.1546
6 6 0 5.0914 4.6455
6 6 1 -2.3382 5.8497
6 6 2 2.3595 -2.2199
6 6 3 0.5950 -7.0077
6 6 4 -0.6152 4.9344
6 6 5 -0.2161 2.8177
6 6 6 1.1320 2.5578
6 6 7 -4.5534 -1.9350
6 6 8 3.9659 -1.9063
6 6 9 -2.4832 -0.2672
6 6 10 0.6915 0.2980
6 6 11 0.6033 0.3854
6 6 12 -1.7392 -0.0925
6 6 13 -1.8924 -0.8766
6 6 14 1.3493 -0.6994
6 6 15 -3.3060 0.8820
6 6 16 0.6096 -1.2370
6 6 17 -0.8719 -0.8878
6 6 18 -0.3443 0.8716
6 6 19 1.4610 2.8547
6 7 0 4.2189 -0.3835
6 7 1 -1.7445 -0.1542
6 7 2 2.7948 0.5457
6 7 3 1.7767 -2.9201
6 7 4 0.6897 -2.9095
6 7 5 -0.5252 -6.2926
6 7 6 3.5621 -1.3657
6 7 7 -3.5353 -0.5414
6 7 8 5.0392 -1.2721
6 7 9 -3.2400 -0.0931
6 7 10 -0.3338 -2.0613
6 7 11 -0.2005 -1.9398
6 7 12 -1.0786 -0.3041
6 7 13 -0.5305 -0.4667
6 7 14 2.9628 -1.4877
6 7 15 -2.4341 0.9719
6 7 16 3.6464 -0.5901
6 7 17 -1.4132 -1.6417
6 7 18 -0.2623 -2.9141
6 7 19 -0.3583 -2.5946
6 8 0 1.0147 -11.0533
6 8 1 -3.7062 -3.0208
6 8 2 -3.3018 -2.8499
6 8 3 -2.6693 6.5748
6 8 4 -2.7768 3.3142
6 8 5 -2.3339 2.1773
6 8 6 2.5303 2.0868
6 8 7 -5.2061 1.7699
6 8 8 3.1214 -1.6866
6 8 9 -2.1456 3.4501
6 8 10 2.5955 0.9610
6 8 11 2.2750 1.1116
6 8 12 0.5914 2.5038
6 8 13 -0.9409 1.3627
6 8 14 1.0565 -1.2162
6 8 15 -3.9666 0.3478
6 8 16 2.6789 0.2789
6 8 17 -2.1676 2.4674
6 8 18 1.8265 3.9058
6 8 19 2.1478 3.7420
6 9 0 1.4777 1.7427
6 9 1 1.5814 15.2045
6 9 2 2.8216 -3.0790
6 9 3 5.6166 2.4780
6 9 4 2.4964 -4.0258
6 9 5 0.9465 -0.8722
6 9 6 3.1777 -0.2897
6 9 7 -2.1480 1.4084
6 9 8 3.8521 -1.5524
6 9 9 -2.4890 2.7075
6 9 10 -0.7243 -1.8334
6 9 11 -1.7357 -2.2408
6 9 12 -0.6548 -0.3581
6 9 13 0.5101 -0.5861
6 9 14 2.9015 0.6063
6 9 15 -1.1081 1.7909
6 9 16 2.8108 -0.4691
6 9 17 -2.4195 -2.4744
6 9 18 0.1573 -3.4357
6 10 0 -0.9365 -23.5841
6 10 1 0.5238 6.1302
6 10 2 -3.0155 -8.8388
6 10 3 -2.2514 -2.7445
6 10 4 -3.7507 -0.5364
6 10 5 -1.4727 2.3794
6 10 6 -0.7884 0.3933
6 10 7 -2.5089 -2.4599
6 10 8 1.5808 -2.5602
6 10 9 -1.6895 -0.1324
6 10 10 1.4762 -1.3858
6 10 11 0.2081 0.5140
6 10 12 -0.5606 2.2192
6 10 13 -1.5525 -2.3588
6 10 14 -0.7118 -1.0525
6 10 15 -2.2865 -0.6215
6 10 16 1.1836 -0.1739
6 10 17 -1.3985 1.4374
6 10 18 1.2026 3.6104
6 11 0 -3.7352 -23.9165
6 11 1 0.9223 12.7235
6 11 2 -0.7657 5.7750
6 11 3 0.5996 -0.5996
6 11 4 0.5497 2.5737
6 11 5 3.2433 -1.8801
6 11 6 -0.1225 -0.7747
6 11 7 0.7740 -1.6262
6 11 8 1.4608 5.2060
6 11 9 -1.0159 2.2781
6 11 10 1.6945 -1.2318
6 11 11 1.0595 -0.3905
6 11 12 1.3023 2.9883
6 11 13 0.4641 -1.6364
6 11 14 1.1036 1.3909
6 11 15 -0.3026 0.7829
6 11 16 1.4997 -0.8579
6 11 17 -0.3949 -1.3093
6 12 0 -1.1970 -15.4243
6 12 1 4.0578 6.9849
6 12 2 2.0234 1.6437
6 12 3 1.2846 -8.9764
6 12 4 -0.2615 4.5890
6 12 5 1.9793 2.1137
6 12 6 -3.2822 3.6619
6 12 7 0.9688 -3.4259
6 12 8 0.0380 1.4726
6 12 9 -1.8989 -1.1716
6 12 10 -1.6204 -1.9669
6 12 11 -2.3425 -0.4008
6 12 12 -0.3547 2.1024
6 12 13 -0.4097 -2.7641
6 12 14 2.2028 1.0455
6 12 15 -0.5238 1.7790
6 12 16 0.1721 -0.4294
6 12 17 -1.4071 0.7483
6 13 0 -4.7347 -4.7892
6 13 1 -0.6743 6.6891
6 13 2 -2.8824 2.4845
6 13 3 -2.6257 -7.2160
6 13 4 -3.0369 1.0507
6 13 5 1.8988 -2.7219
6 13 6 -3.4288 -0.2782
6 13 7 1.4323 -3.5341
6 13 8 0.2982 0.7563
6 13 9 1.7480 1.3831
6 13 10 2.5031 -0.7988
6 13 11 1.6183 0.3148
6 13 12 0.8408 1.3751
6 13 13 -4.2840 -2.4390
6 13 14 -0.4788 -0.7116
6 13 15 -2.8139 0.5534
6 13 16 0.8555 -1.1074
6 14 0 0.1294 -22.3139
6 14 1 2.9148 -3.7259
6 14 2 1.5041 0.0516
6 14 3 2.3431 3.0764
6 14 4 0.0459 2.4941
6 14 5 4.7686 -0.5496
6 14 6 -1.3200 0.4900
6 14 7 1.7827 1.4011
6 14 8 -1.5249 0.1511
6 14 9 -1.9112 1.4563
6 14 10 -2.8930 -2.7006
6 14 11 -1.0144 0.3892
6 14 12 3.2486 1.4331
6 14 13 0.4717 0.4828
6 14 15 0.0833 -0.0480
6 15 0 -1.2971 11.4589
6 15 1 0.1575 17.6987
6 15 2 -0.5297 -2.8645
6 15 3 0.0643 -0.4402
6 15 4 -3.2818 -1.7203
6 15 5 1.1808 2.5997
6 15 6 -3.6139 -0.0121
6 15 7 1.0465 1.2228
6 15 8 1.0582 -2.0609
6 15 9 2.6991 2.7017
6 15 10 1.2029 -0.6901
6 15 11 -0.3260 0.9093
6 15 12 -0.1889 -1.6017
6 15 13 -6.4753 0.2476
6 16 0 -1.7377 -30.3008
6 16 1 -1.2516 -0.3308
6 16 2 -0.6965 -7.3528
6 16 3 0.3551 1.0763
6 16 4 -1.1969 -0.7552
6 16 5 3.0450 0.0275
6 16 6 -1.6937 -4.0687
6 16 7 0.4972 0.2761
6 16 8 -1.7870 -2.2335
6 16 9 -1.2956 -0.2306
6 16 10 -1.3366 -1.4944
6 16 11 -0.4796 1.9362
6 16 12 3.6050 -0.6499
6 17 0 3.2996 -8.5153
6 17 1 2.1402 17.1598
6 17 2 1.5971 0.5080
6 17 3 0.7591 -3.0735
6 17 4 -0.9706 1.9245
6 17 5 1.9682 1.7167
6 17 6 -0.8018 -0.0507
6 17 7 1.9890 3.7096
6 17 8 0.1189 2.6814
6 17 9 1.6230 0.7696
6 17 10 0.8447 -0.7261
6 18 0 -2.3564 -21.8341
6 18 1 -3.4134 6.7731
6 18 2 -1.5353 1.2606
6 18 3 0.0529 -3.6250
6 18 4 -1.2666 6.2972
6 18 5 -0.0946 -1.4864
6 18 6 -1.6631 -3.1266
6 18 7 0.4676 -2.5905
6 18 8 -2.0408 -1.9752
6 18 9 0.4711 -2.2025
6 19 0 4.1720 -4.8410
6 19 1 1.3943 6.7905
6 19 2 0.9546 -2.8678
6 19 3 1.8306 -9.4149
6 19 6 0.3275 2.5762
7 0 1 2.7900 16.9359
7 0 3 -4.5204 24.7471
7 0 5 5.4238 12.2590
7 0 7 4.5745 14.7422
7 0 9 -7.1075 15.2049
7 0 11 -6.8204 9.1137
7 0 13 -3.3185 9.0697
7 0 15 1.0586 7.2131
7 0 17 1.9898 10.1362
7 0 19 -1.9591 8.2582
7 1 0 -4.4666 -12.7646
7 1 1 2.4860 -9.9979
7 1 2 2.5063 -14.8541
7 1 3 2.6764 10.2353
7 1 4 1.0091 -15.0202
7 1 5 -2.6450 7.1065
7 1 6 -7.3393 -9.5066
7 1 7 -0.4380 7.7881
7 1 8 1.3400 -12.5956
7 1 9 1.6392 6.8080
7 1 10 8.5338 -8.8475
7 1 11 -2.9412 4.4451
7 1 12 5.1864 -5.5294
7 1 13 -0.3016 7.2256
7 1 14 0.7170 -6.3360
7 1 15 2.4512 2.4090
7 1 16 -2.0467 -6.9304
7 1 17 0.3394 7.3656
7 1 18 1.2522 -5.6099
7 1 19 0.3855 2.0205
7 1 20 2.9896 -4.1065
7 2 0 -3.7786 20.1321
7 2 1 0.3373 5.8404
7 2 2 -5.3222 -0.8382
7 2 3 -3.5810 4.1131
7 2 4 0.1286 -8.4784
7 2 5 2.6528 3.9000
7 2 6 3.6623 -3.2044
7 2 7 4.7866 4.2836
7 2 8 -3.1070 -7.3881
7 2 9 -5.2267 5.3253
7 2 10 0.5946 -0.8319
7 2 11 -8.2929 2.8661
7 2 12 3.5127 -5.0402
7 2 13 -1.9921 1.1453
7 2 14 -3.3487 -1.7395
7 2 15 1.6197 5.0589
7 2 16 -2.8773 -1.8484
7 2 17 -1.0791 2.8195
7 2 18 -0.0816 -5.3956
7 2 19 -5.2753 0.2741
7 2 20 -0.2811 3.3067
7 3 0 1.2144 -7.8222
7 3 1 5.3410 -5.8909
7 3 2 2.1447 2.1745
7 3 3 2.9287 4.5958
7 3 4 1.4439 6.0342
7 3 5 -2.8210 0.8869
7 3 6 -3.6030 2.2520
7 3 7 0.5091 2.7864
7 3 8 -1.6645 1.2132
7 3 9 3.2512 0.3743
7 3 10 6.9169 -0.5368
7 3 11 -2.2312 -0.0327
7 3 12 4.8959 1.6016
7 3 13 0.7221 2.5445
7 3 14 -1.5718 0.4637
7 3 15 4.8764 -2.6410
7 3 16 -0.2698 -3.3260
7 3 17 1.6239 2.9930
7 3 18 5.2936 2.4651
7 3 19 -1.0202 -0.3952
7 3 20 6.3366 -0.7264
7 4 0 -4.9893 -2.2873
7 4 1 -2.4401 3.3899
7 4 2 -2.6272 -0.2141
7 4 3 -1.1682 -6.2211
7 4 4 0.8101 1.1459
7 4 5 0.2937 -8.4937
7 4 6 0.5916 0.5555
7 4 7 3.2028 -3.1763
7 4 8 -2.1173 1.9386
7 4 9 -0.4770 -3.0448
7 4 10 -1.1964 2.3898
7 4 11 -4.6565 -1.1056
7 4 12 -0.3731 -0.7661
7 4 13 -0.4254 -3.3953
7 4 14 -3.3223 1.7901
7 4 15 2.0326 0.1230
7 4 16 -3.0131 1.9709
7 4 17 -2.2390 0.0853
7 4 18 0.5080 -1.0219
7 4 19 -6.4542 -2.7224
7 5 0 2.6624 -3.2696
7 5 1 1.5815 2.6943
7 5 2 0.9968 -5.5892
7 5 3 -1.6333 -3.0847
7 5 4 0.0390 6.1474
7 5 5 -0.4578 -1.4742
7 5 6 -1.1497 4.3266
7 5 7 0.1075 -2.8035
7 5 8 -2.7676 0.9530
7 5 9 -0.1140 -4.0190
7 5 10 -0.1636 2.3322
7 5 11 1.6420 -0.5234
7 5 12 1.1056 1.2013
7 5 13 2.5428 -0.7666
7 5 14 -1.3884 2.8357
7 5 15 1.4656 -2.0467
7 5 16 -1.2476 -0.0608
7 5 17 0.0540 -1.4826
7 5 18 3.0270 1.0748
7 5 19 -2.2340 0.5222
7 6 0 1.0759 6.6483
7 6 1 -1.1549 8.7472
7 6 2 2.6697 0.6042
7 6 3 0.3475 5.9094
7 6 4 1.9476 1.3397
7 6 5 -0.0215 -4.0897
7 6 6 0.4798 1.9370
7 6 7 2.1491 1.9366
7 6 8 2.8701 2.9500
7 6 9 3.4409 0.3997
7 6 10 1.0041 1.7402
7 6 11 1.0578 -1.3195
7 6 12 -3.1857 -0.2117
7 6 13 0.3690 -0.7475
7 6 14 -0.8214 0.6759
7 6 15 1.9446 -1.9441
7 6 16 1.6745 1.1573
7 6 17 0.6478 0.1637
7 6 18 1.0682 0.5574
7 7 0 1.2435 -8.5629
7 7 1 -3.7447 -11.9074
7 7 2 -0.5468 -9.4623
7 7 3 -2.8305 5.9778
7 7 4 0.0890 -0.7561
7 7 5 -1.2673 -3.0461
7 7 6 -0.2641 0.2612
7 7 7 -3.0778 0.1051
7 7 8 -4.0277 -4.6758
7 7 9 -4.6968 -0.9870
7 7 10 -2.6473 0.1300
7 7 11 0.9332 0.1327
7 7 12 -0.3721 0.6894
7 7 13 2.6812 1.0524
7 7 14 -1.2532 0.2676
7 7 15 -2.1650 -0.2751
7 7 16 -1.7587 0.6897
7 7 17 -1.5705 0.0197
7 8 0 4.4395 33.1811
7 8 1 -0.8400 8.6744
7 8 2 2.7329 -4.6316
7 8 3 0.9294 0.5615
7 8 4 1.1796 -3.2030
7 8 5 -1.1211 -2.4007
7 8 6 1.9936 2.5144
7 8 7 2.4946 2.0244
7 8 8 4.7355 -3.2995
7 8 9 3.6567 3.7515
7 8 10 2.7242 1.0289
7 8 11 0.1082 -1.1647
7 8 12 -3.1094 -2.6166
7 8 13 0.5381 -0.0512
7 8 14 -0.7709 -0.0982
7 8 15 1.4426 0.8398
7 8 16 1.4314 -0.5716
7 8 17 0.8307 0.8158
7 9 0 1.9874 -15.3573
7 9 1 -2.6812 -11.2338
7 9 2 0.0359 0.7459
7 9 3 -0.0002 9.2242
7 9 4 0.4134 5.0201
7 9 5 -0.6223 -2.8646
7 9 6 -0.4671 2.4287
7 9 7 -2.3042 2.8685
7 9 8 -3.4676 -2.3039
7 9 9 -3.4127 0.9189
7 9 10 -0.8179 -1.9988
7 9 11 0.8943 1.1097
7 9 12 0.4006 1.6995
7 9 13 3.7532 1.9347
7 9 14 -0.8661 -1.4531
7 9 15 1.2758 -0.9241
7 9 16 -0.8577 -1.8197
7 9 17 1.6986 1.2684
7 10 0 2.3420 10.6647
7 10 1 -0.9842 7.9792
7 10 2 -0.5522 -2.7255
7 10 3 -1.4059 -5.6913
7 10 4 -1.1292 -0.5972
7 10 5 0.2964 -3.6594
7 10 6 0.5762 -0.2583
7 10 7 2.5821 -1.6120
7 10 8 1.2109 -2.0585
7 10 9 1.5069 2.8072
7 10 10 1.0914 -0.0304
7 10 11 0.0484 -0.1613
7 10 12 -3.2357 -1.7046
7 10 13 0.0145 -0.6988
7 10 14 -4.5921 0.7086
7 10 15 0.7411 2.1280
7 10 16 -3.1555 0.3372
7 10 17 0.7808 2.1873
7 11 0 -1.4699 -17.1955
7 11 1 -0.9253 0.9460
7 11 2 2.2733 -2.1449
7 11 3 2.5537 -1.6380
7 11 4 1.9388 2.0211
7 11 5 0.2445 -0.3011
7 11 6 -2.8884 1.5591
7 11 7 0.1043 1.2760
7 11 8 -1.7446 -0.8080
7 11 9 -0.7223 0.1879
7 11 10 -0.8448 -1.8044
7 11 11 -0.0753 0.2558
7 11 12 -0.2843 1.7160
7 11 13 4.8699 -0.8020
7 11 14 0.1143 -0.1038
7 11 15 4.8748 -0.8694
7 11 16 -1.5240 -1.0906
7 12 0 2.5474 -0.7092
7 12 1 1.4882 12.4172
7 12 2 -1.2031 1.4675
7 12 3 -4.4016 2.5323
7 12 4 -1.6226 2.3657
7 12 5 0.3624 0.8835
7 12 6 0.3330 0.1416
7 12 7 2.7878 0.2814
7 12 8 0.0240 -0.6486
7 12 9 1.1184 2.2996
7 12 10 2.2708 0.0682
7 12 11 1.0590 -1.2476
7 12 12 -1.2007 1.8432
7 12 13 -0.6908 -2.3171
7 12 14 -5.0497 1.3640
7 12 15 0.9392 -0.8866
7 12 16 -2.4304 0.6207
7 13 0 -3.6385 -18.9061
7 13 1 -1.6902 -5.0674
7 13 2 1.4871 -6.7917
7 13 3 1.3358 1.1240
7 13 4 3.3781 -2.0899
7 13 5 0.3984 -3.3985
7 13 6 -1.0376 -0.3804
7 13 7 -0.3904 -0.1310
7 13 8 -1.7492 -1.8061
7 13 9 -2.6216 0.8913
7 13 10 -1.4522 -0.6031
7 13 11 -2.3901 -1.8867
7 13 12 0.4590 3.9447
7 13 13 2.3740 -2.4509
7 13 14 0.5823 2.6471
7 13 15 2.3483 -1.2562
7 14 0 1.7516 19.7127
7 14 1 1.7045 11.5398
7 14 2 1.0508 -2.1219
7 14 3 -2.4738 -0.2114
7 14 4 -0.8053 -0.7545
7 14 5 -2.1539 -0.5674
7 14 6 -0.9107 4.2954
7 14 7 0.3060 -0.7759
7 14 8 2.5334 -1.2856
7 14 9 1.6615 2.0482
7 14 10 3.5921 1.0485
7 14 11 0.3457 -2.4200
7 14 12 0.3706 1.8939
7 14 13 -1.3559 -4.3948
7 14 14 -1.1066 3.1278
7 15 0 -2.1044 -18.6055
7 15 1 -0.9896 -8.5765
7 15 2 0.2537 0.8660
7 15 3 -1.2147 6.2630
7 15 4 2.1154 4.1011
7 15 5 2.6321 -1.9288
7 15 6 1.4845 2.7105
7 15 7 -0.2574 -1.8947
7 15 8 -0.0585 0.4543
7 15 9 -3.8020 -0.5528
7 15 10 -1.0443 -1.0640
7 15 11 -1.0190 -0.7528
7 16 0 -0.5425 5.7443
7 16 1 1.5312 7.5390
7 16 2 1.6880 -0.4322
7 16 3 -1.6031 -7.6134
7 16 4 -1.2227 -4.7583
7 16 5 -0.5380 -3.0324
7 16 6 -3.1624 0.2888
7 16 7 -1.0165 -2.6011
7 16 8 2.2113 2.8616
7 16 9 -0.2219 0.9437
7 16 10 1.2116 0.5364
7 16 11 0.7207 -0.4576
7 17 0 -3.3235 -19.3696
7 17 1 0.0400 2.2019
7 17 2 0.5484 3.0172
7 17 3 -0.4976 1.3583
7 17 4 0.4935 4.6704
7 17 5 3.4729 7.0801
7 17 6 -0.8738 0.4094
7 17 7 0.9939 -1.9368
7 17 8 1.3927 0.6965
7 17 9 -1.0243 -2.6991
7 18 0 -0.4053 -12.1815
7 18 1 2.1337 9.3260
7 18 2 0.1682 0.1889
7 18 3 -0.8907 -4.6337
7 18 4 -1.7496 -6.1610
7 18 5 1.6028 0.7415
7 18 6 -2.4119 -5.1169
7 18 7 -0.0312 0.8421
7 19 0 -2.3378 -17.2893
7 19 1 0.0655 5.1882
7 19 2 -0.6226 -1.1435
8 0 0 -11.3296 -9.9412
8 0 2 -1.1243 -5.9546
8 0 4 4.0458 1.7245
8 0 6 2.0814 4.5536
8 0 8 6.4116 -1.2964
8 0 10 -0.4481 -2.7050
8 0 12 -4.5489 0.1409
8 0 14 -0.1479 -0.4860
8 0 16 -0.2694 0.7775
8 0 18 0.7924 -0.4365
8 1 0 -1.4675 18.0031
8 1 1 7.2531 8.4821
8 1 2 -1.4492 5.6682
8 1 3 -3.1432 -1.6944
8 1 4 -0.6472 2.9652
8 1 5 -2.3417 -2.1606
8 1 6 -1.2804 8.0814
8 1 7 -3.4561 -3.8317
8 1 8 -2.7028 3.4244
8 1 9 -3.1966 2.4424
8 1 10 -0.1888 5.5589
8 1 11 3.5983 0.3770
8 1 12 2.4314 2.4331
8 1 13 2.7271 -0.3079
8 1 14 1.5854 4.6909
8 1 15 0.5467 0.7266
8 1 16 0.5821 4.0918
8 1 17 -0.6193 -2.0435
8 1 18 0.4813 -3.2432
8 1 19 -1.1637 -3.6657
8 2 0 -6.3507 -34.7015
8 2 1 3.2074 -17.0059
8 2 2 -1.5714 -1.7508
8 2 3 1.3530 -0.5521
8 2 4 3.0457 0.3808
8 2 5 1.8493 -6.5066
8 2 6 1.8753 0.3759
8 2 7 4.2759 -3.8341
8 2 8 0.9397 1.4494
8 2 9 2.9688 -1.9853
8 2 10 -0.6304 -3.3601
8 2 11 -2.1616 -1.9737
8 2 12 -3.0107 1.2272
8 2 13 -3.8712 0.0807
8 2 14 -3.1519 -0.2170
8 2 15 -1.3311 -5.1505
8 2 16 0.1048 -0.7792
8 2 17 -0.1276 0.7830
8 2 18 2.5452 4.7595
8 2 19 -0.4596 1.3980
8 3 0 -5.7089 11.7797
8 3 1 1.5124 25.3892
8 3 2 -1.9760 2.5241
8 3 3 -0.1366 -3.1572
8 3 4 -1.2762 0.1788
8 3 5 -3.0529 3.8949
8 3 6 -5.2549 3.6105
8 3 7 -0.2794 -0.4301
8 3 8 -4.5333 0.3290
8 3 9 1.9060 1.8823
8 3 10 -0.5394 0.3697
8 3 11 0.2935 2.5584
8 3 12 3.7698 -1.9589
8 3 13 2.8139 -2.2314
8 3 14 3.2671 1.7678
8 3 15 2.3770 1.1615
8 3 16 -0.4221 2.0975
8 3 17 -2.8655 -0.0471
8 3 18 -0.4796 -1.2388
8 3 19 -2.3154 -7.1950
8 4 0 2.5865 -36.5378
8 4 1 4.0994 2.6641
8 4 2 0.1491 -6.4100
8 4 3 -0.9670 2.2419
8 4 4 1.1129 1.7206
8 4 5 4.3755 1.2749
8 4 6 3.3169 -2.9136
8 4 7 5.7616 -0.1401
8 4 8 -1.3011 -0.4800
8 4 9 1.5066 0.3938
8 4 10 -0.9691 -2.8848
8 4 11 -1.4510 2.4664
8 4 12 1.3262 -0.3822
8 4 13 -3.8105 0.4479
8 4 14 -1.7430 2.1088
8 4 15 -1.1642 -1.3323
8 4 16 0.7932 -1.8091
8 4 17 1.5103 -0.5397
8 4 18 3.6133 1.3105
8 5 0 -2.9252 -7.8336
8 5 1 -3.3718 12.9852
8 5 2 1.3955 -4.2326
8 5 3 -0.4167 -2.1782
8 5 4 -0.1288 -2.5246
8 5 5 -2.8396 -2.7283
8 5 6 -5.7907 -2.7390
8 5 7 -2.9514 1.6646
8 5 8 -2.2121 0.2006
8 5 9 0.9183 1.2044
8 5 10 1.1570 -2.0588
8 5 11 -2.1632 0.6291
8 5 12 2.2606 -1.1739
8 5 13 -2.9728 -0.3735
8 5 14 2.5248 0.5299
8 5 15 -0.2908 -1.8313
8 5 16 0.2046 -0.4258
8 5 17 -2.8370 2.8517
8 5 18 -1.2527 1.2996
8 6 0 3.1985 -2.7256
8 6 1 -2.6539 0.1902
8 6 2 2.0280 -1.8052
8 6 3 -2.7779 2.6168
8 6 4 1.5868 5.7476
8 6 5 2.2254 1.1460
8 6 6 3.4287 3.4604
8 6 7 3.2176 1.7084
8 6 8 1.7037 -3.0956
8 6 9 -1.1657 0.1387
8 6 10 1.4271 1.5496
8 6 11 -2.3793 1.6021
8 6 12 4.9272 0.0541
8 6 13 -1.6423 -0.8373
8 6 14 2.7103 0.9172
8 6 15 -2.1964 1.1997
8 6 16 1.6880 -0.1370
8 6 17 -0.7574 0.5094
8 7 0 6.7516 20.9262
8 7 1 -1.0087 2.1977
8 7 2 4.3045 -0.7447
8 7 3 -1.6031 -1.0853
8 7 4 0.5478 0.5831
8 7 5 -2.0071 -6.7006
8 7 6 -1.7641 0.9988
8 7 7 -1.3198 0.5924
8 7 8 -0.3900 -1.5984
8 7 9 -1.3586 1.7255
8 7 10 2.8571 0.5630
8 7 11 -4.0986 -3.1228
8 7 12 1.5957 -0.5706
8 7 13 -3.3933 0.1025
8 7 14 1.4291 1.0364
8 7 15 -1.2810 -0.0947
8 7 16 2.9014 -2.8400
8 8 0 -0.9695 -12.9165
8 8 1 -7.0028 -15.1467
8 8 2 0.1356 -4.1616
8 8 3 -0.8616 4.2009
8 8 4 1.3373 2.1302
8 8 5 0.7468 -5.6796
8 8 6 -0.2253 2.4333
8 8 7 0.7276 1.2345
8 8 8 -0.5123 -2.5910
8 8 9 -1.3510 -0.5404
8 8 10 2.7744 0.2919
8 8 11 -2.1851 -0.1917
8 8 12 2.2163 3.0013
8 8 13 -0.5321 -0.5641
8 8 14 -0.2179 -0.6446
8 8 15 -2.0356 -0.4012
8 8 16 1.5718 -3.6343
8 9 0 7.0434 23.5027
8 9 1 1.3463 15.6278
8 9 2 1.7237 -1.4447
8 9 3 -0.5016 1.8728
8 9 4 -2.3611 0.5140
8 9 5 0.6973 0.0349
8 9 6 -0.8572 3.0653
8 9 7 2.1037 0.1079
8 9 8 0.2890 -1.2314
8 9 9 -0.9772 2.1137
8 9 10 1.4293 1.7296
8 9 11 -1.1587 -1.4281
8 9 12 0.6722 -0.6410
8 9 13 1.9870 -2.5181
8 9 14 0.5728 2.4985
8 9 15 0.5265 3.9156
8 10 0 -2.1426 -22.4560
8 10 1 -2.6532 -2.5736
8 10 2 0.1384 -7.3675
8 10 3 3.8763 3.3083
8 10 4 -0.0677 -0.1818
8 10 5 2.8865 -0.8401
8 10 6 -2.6503 -0.2700
8 10 7 -0.0263 0.1831
8 10 8 0.3323 -0.3013
8 10 9 -0.8285 -0.7280
8 10 10 1.2276 -0.9794
8 10 11 -0.7049 -0.2315
8 10 12 -2.5599 2.4162
8 10 13 -0.3677 -1.0672
8 10 14 -2.0976 -0.7914
8 10 15 0.2471 -2.5376
8 11 0 2.3771 -5.3152
8 11 1 1.4767 8.2345
8 11 2 -3.1462 -1.4593
8 11 3 -1.3462 0.5833
8 11 4 -5.5302 -2.0090
8 11 5 1.6744 -2.9856
8 11 6 -0.9780 -1.2630
8 11 7 0.5572 0.3896
8 11 8 0.7768 0.2417
8 11 9 -2.7569 0.0358
8 11 10 1.1154 -0.0441
8 11 11 0.9375 -0.8448
8 11 12 0.7666 0.6758
8 11 13 2.4865 -0.3072
8 11 14 0.0716 1.6568
8 11 15 0.3381 3.2572
8 12 0 -2.5426 4.4529
8 12 1 -0.1823 1.5980
8 12 2 -0.3901 -2.1259
8 12 3 6.0717 0.2117
8 12 4 0.4038 5.9069
8 12 5 2.8968 1.5739
8 12 6 -0.6501 2.9163
8 12 7 -0.3475 0.3752
8 12 8 2.0739 -2.4663
8 12 9 -1.4064 0.8178
8 12 10 2.2069 1.5711
8 12 11 -1.7558 -0.3379
8 12 12 -1.0090 -0.1944
8 12 13 -0.6816 -0.8081
8 12 14 -0.6769 -2.0754
8 13 0 2.7453 7.7965
8 13 1 2.0785 -3.2801
8 13 2 -2.2723 0.6213
8 13 3 1.7917 -0.8476
8 13 4 -4.0975 0.3258
8 13 5 -1.0012 -8.1839
8 13 6 -0.8393 1.3512
8 13 7 -0.8118 3.4133
8 13 8 0.7382 -1.5558
8 13 9 -1.7973 2.1976
8 13 10 2.4692 -0.2197
8 13 11 -1.9554 -0.8733
8 13 12 1.3344 0.4442
8 13 13 0.4712 1.7982
8 14 0 -0.3023 5.4837
8 14 1 -2.4973 -8.5884
8 14 2 -4.0692 -4.1880
8 14 3 1.6201 2.3784
8 14 4 -1.5482 4.2849
8 14 5 2.0182 -4.0347
8 14 6 2.3159 0.9163
8 14 7 0.7388 -0.1375
8 14 8 -0.5061 -7.0680
8 14 9 -1.9948 0.8979
8 14 10 1.7041 -1.9214
8 14 11 -1.8754 -0.4459
8 14 12 1.0244 -0.6877
8 15 0 3.9914 14.9537
8 15 1 0.6722 6.3768
8 15 2 2.5738 -1.2576
8 15 3 4.6998 4.3376
8 15 4 -0.6198 -0.7909
8 15 5 -1.0643 -1.1270
8 15 6 -2.2185 2.8171
8 15 7 -0.5995 5.8381
8 15 8 0.6093 -0.3444
8 15 9 0.8673 6.6380
8 15 11 -1.1040 2.6903
8 16 0 1.6598 -8.9378
8 16 1 -4.1650 -0.8751
8 16 2 -1.5294 -8.0791
8 16 3 -2.4729 4.0727
8 16 4 -1.5558 -3.3281
8 16 5 1.7120 2.1034
8 16 6 0.9945 -3.6355
8 16 7 0.9225 -1.4884
8 16 8 -0.4377 -6.4866
8 16 9 -1.5580 -1.2652
8 17 1 -1.6015 6.1276
8 17 2 3.7881 -1.5117
8 17 3 -0.5922 4.5228
8 17 4 0.4026 -6.9245
8 17 5 0.1925 3.4605
8 17 6 -1.2518 -2.2675
8 18 0 1.6367 -1.3730
8 18 1 -3.5784 4.8004
8 18 2 2.6470 -0.8398
9 0 1 4.4951 14.6158
9 0 3 -3.3304 9.3498
9 0 5 -5.8162 2.0745
9 0 7 -0.5509 2.9073
9 0 9 2.2940 6.4669
9 0 11 -2.1916 2.8547
9 0 13 -7.5914 2.8556
9 0 15 -6.0130 2.6079
9 0 17 -2.1119 3.1453
9 1 0 -5.6679 -20.6823
9 1 1 2.7844 1.4627
9 1 2 -1.0297 -5.7830
9 1 3 1.4065 2.7384
9 1 4 5.9102 -4.4362
9 1 5 2.2113 -0.1604
9 1 6 3.9096 -1.5241
9 1 7 1.8162 2.1174
9 1 8 -1.9274 -4.0936
9 1 9 -0.1045 -0.2774
9 1 10 -0.1592 -5.0180
9 1 11 -0.9696 -0.8129
9 1 12 5.4928 -0.9613
9 1 13 -1.4943 1.6171
9 1 14 6.6884 -2.7050
9 1 15 -0.0792 2.3017
9 1 16 3.6734 -1.7502
9 1 17 1.2020 -4.3618
9 1 18 1.4409 -3.5467
9 2 0 -5.5201 3.0843
9 2 1 3.8493 15.5693
9 2 2 -2.4934 -3.5163
9 2 3 -2.1117 -4.3399
9 2 4 -2.4529 -2.9726
9 2 5 -6.6807 2.6118
9 2 6 -4.3622 -2.3402
9 2 7 -0.7487 -0.9038
9 2 8 -0.6682 -0.8798
9 2 9 1.7734 3.4297
9 2 10 1.1873 0.8691
9 2 11 -3.6690 1.5803
9 2 12 2.2953 0.9430
9 2 13 -5.1262 -1.3314
9 2 14 2.1616 -0.7146
9 2 15 -3.7362 1.8068
9 2 16 -1.5808 2.6942
9 2 17 -2.2407 2.6712
9 2 18 -1.3972 5.8865
9 3 0 -2.8114 -37.1079
9 3 1 4.4978 1.4247
9 3 2 -1.6595 2.1481
9 3 3 0.3497 1.0983
9 3 4 4.0569 5.4131
9 3 5 4.9022 3.9704
9 3 6 4.8596 -0.3826
9 3 7 2.8177 0.8686
9 3 8 -1.2376 2.9381
9 3 9 -1.8413 0.3175
9 3 10 0.4195 -2.4374
9 3 11 -1.7990 0.3598
9 3 12 3.7577 2.6287
9 3 13 -3.8131 -0.8608
9 3 14 2.2266 2.0511
9 3 15 -0.6136 -0.7072
9 3 16 1.4597 -3.3087
9 3 17 2.3887 -6.1794
9 4 0 -4.4666 -11.0367
9 4 1 1.2075 16.6866
9 4 2 0.1166 3.2470
9 4 3 0.1748 -9.1586
9 4 4 -1.3984 -0.5614
9 4 5 -3.5832 -1.9934
9 4 6 -4.6712 -3.0629
9 4 7 -2.4686 -2.2796
9 4 8 1.2843 1.6146
9 4 9 1.7118 -1.4452
9 4 10 2.4152 -2.6822
9 4 11 0.0663 -0.5664
9 4 12 3.3260 0.0711
9 4 13 -1.4738 -3.7997
9 4 14 3.3417 -0.3755
9 4 15 0.5678 0.2416
9 4 16 -1.0386 2.4438
9 4 17 0.9779 5.4480
9 5 0 -0.5075 -17.0515
9 5 1 0.3334 6.2179
9 5 2 -0.2649 -3.0071
9 5 3 -1.1338 -7.3866
9 5 4 -0.0387 5.4916
9 5 5 2.4403 3.5454
9 5 6 1.9128 1.2681
9 5 7 0.7529 -1.0098
9 5 8 0.4228 -0.2305
9 5 9 -2.6588 0.1502
9 5 10 -3.4163 2.0814
9 5 11 -3.4930 2.2194
9 5 12 -1.1434 1.7465
9 5 13 -3.8846 -0.0825
9 5 14 -1.2845 1.2524
9 5 15 -1.3330 1.7478
9 5 16 -3.7644 -2.6343
9 6 0 2.2622 -16.4681
9 6 1 0.7386 7.1203
9 6 2 0.9952 3.1877
9 6 3 -0.4676 2.0954
9 6 4 -0.1199 2.3330
9 6 5 0.7974 -4.8746
9 6 6 0.3105 -2.6473
9 6 7 0.1459 3.1325
9 6 8 0.8494 2.0020
9 6 9 2.1233 0.9638
9 6 10 3.5841 -0.8530
9 6 11 2.9987 -3.3682
9 6 12 4.7130 0.0720
9 6 13 2.4058 0.7987
9 6 14 1.7943 -1.5907
9 6 15 5.3172 0.4027
9 7 0 -2.6816 -4.1179
9 7 1 -2.8323 7.0657
9 7 2 0.0364 -7.5789
9 7 3 0.7936 -2.7225
9 7 4 0.6895 2.4127
9 7 5 -2.0712 1.3173
9 7 6 -2.2058 1.4686
9 7 7 -1.6789 0.6538
9 7 8 -2.5557 -5.9358
9 7 9 -1.3130 -1.6610
9 7 10 -0.6769 1.4144
9 7 11 -5.5616 -1.0278
9 7 12 -1.6036 1.2600
9 7 13 -2.8813 -0.0602
9 7 14 -6.3553 -1.6640
9 8 0 3.3487 -8.3662
9 8 1 2.6879 9.8060
9 8 2 0.1251 -2.2339
9 8 3 -1.0834 1.0579
9 8 4 0.6740 0.2971
9 8 5 0.2342 -4.1227
9 8 6 3.9519 -1.0055
9 8 7 4.1774 2.5314
9 8 8 1.4360 0.3161
9 8 9 0.6108 3.6578
9 8 10 3.3457 2.5339
9 8 11 -2.8605 -0.8967
9 8 12 4.9679 0.8654
9 8 13 4.3760 -0.8504
9 8 14 0.6087 -0.5072
9 9 0 -3.7733 -18.1133
9 9 1 -0.6294 4.3158
9 9 2 -1.2209 -4.2523
9 9 3 -0.3203 -1.2107
9 9 4 0.7935 4.4088
9 9 5 -2.7880 0.2746
9 9 6 -2.5215 1.2015
9 9 7 -4.0329 -0.2343
9 9 8 -2.5737 -1.6361
9 9 9 -2.3742 -1.0240
9 9 10 3.8634 -3.1495
9 9 11 -3.7399 -1.6263
9 9 12 1.3926 1.5674
9 9 13 -3.0054 0.4622
9 9 14 -6.2493 -0.0639
9 10 0 -1.8327 -11.5918
9 10 1 3.0323 11.7699
9 10 2 0.3500 4.4776
9 10 3 0.2232 -2.7968
9 10 4 1.5123 1.2558
9 10 5 1.7927 -2.8641
9 10 6 3.2519 -0.0019
9 10 7 2.5586 -0.4919
9 10 8 4.4488 1.0561
9 10 9 -1.3655 1.2458
9 10 10 1.8550 -0.1960
9 10 11 -3.5418 1.8103
9 10 12 2.8554 0.3100
9 10 13 1.3084 -2.3429
9 11 0 -4.0060 -8.0523
9 11 1 2.1460 2.4999
9 11 2 -1.3945 -4.3549
9 11 3 -1.2619 -7.4741
9 11 4 -1.7881 3.4414
9 11 5 -0.9682 2.2189
9 11 6 -3.4722 0.6597
9 11 7 -3.8127 -1.7178
9 11 8 -0.4687 -0.1819
9 11 9 -2.7994 1.0761
9 11 10 1.4466 0.1588
9 11 11 -0.3293 -0.1070
9 11 12 1.2121 0.4153
9 11 13 -2.5469 1.2305
9 12 0 -2.9495 -13.3489
9 12 1 3.1065 2.2853
9 12 2 -0.5116 5.1643
9 12 3 1.7293 2.8525
9 12 4 0.2376 0.4153
9 12 5 3.5496 -3.2454
9 12 6 0.6421 -1.5396
9 12 7 2.8914 2.6800
9 12 8 2.4271 0.3298
9 12 9 0.9184 -1.4560
9 12 10 -0.1790 -0.8676
9 12 11 -0.1463 -2.3613
9 12 12 0.1294 1.7360
9 13 0 -2.3772 7.7245
9 13 1 1.1577 4.7178
9 13 2 -3.2968 -5.2648
9 13 3 0.2861 0.0734
9 13 4 -2.9015 0.9574
9 13 5 0.8645 1.8710
9 13 6 -2.8101 -0.3999
9 13 7 0.5005 1.1029
9 13 8 -3.6571 -2.9182
9 13 9 0.2774 0.1594
9 13 10 -1.4952 4.4158
9 13 11 1.3172 -2.9969
9 14 0 0.5015 -2.8630
9 14 1 1.9345 -0.7875
9 14 2 0.1078 -6.7936
9 14 3 4.9537 3.0400
9 14 4 -0.5915 -1.4401
9 14 5 0.9748 -1.6494
9 14 6 -2.0462 -0.9733
9 14 7 3.0161 3.7706
9 14 8 -1.9912 -1.1723
9 14 9 3.7878 -0.6197
9 14 10 -1.0699 3.7444
9 15 0 0.5039 0.3973
9 15 1 -1.8838 5.1848
9 15 2 -4.3541 -1.6565
9 15 3 -0.4593 4.9378
9 15 4 -2.8000 0.2811
9 15 5 1.1484 -1.4843
9 15 6 0.3939 -1.7708
9 15 8 -3.4897 -2.1301
9 16 1 0.9785 1.2880
9 16 2 1.7340 -3.4392
9 16 3 3.7397 -0.2309
9 16 4 0.0910 1.0206
9 16 5 -0.2780 1.2801
10 0 0 -0.1081 35.3833
10 0 2 -2.7914 17.1626
10 0 4 0.6457 15.9734
10 0 6 2.9396 26.5321
10 0 8 -2.3367 17.4184
10 0 10 1.2907 18.8716
10 0 12 4.4995 16.9868
10 0 14 0.8298 14.7203
10 0 16 -2.2736 11.3134
10 1 0 -4.4074 4.9115
10 1 1 0.7184 -22.3909
10 1 2 -3.0281 -3.6306
10 1 3 1.4234 -10.1542
10 1 4 0.6903 3.2729
10 1 5 -3.2387 -18.1997
10 1 6 1.5357 0.3426
10 1 7 0.8852 -16.5561
10 1 8 0.4324 -1.1807
10 1 9 2.3014 -11.2711
10 1 10 2.4887 0.2531
10 1 11 -3.1000 -14.3727
10 1 12 3.2141 -0.1960
10 1 13 -1.7749 -11.5518
10 1 14 1.1562 -0.3115
10 1 15 1.1409 -11.7658
10 1 16 -0.2170 3.4052
10 2 0 1.0752 2.8389
10 2 1 7.1506 -0.2451
10 2 2 -0.1488 6.3475
10 2 3 2.0089 -1.1371
10 2 4 2.1358 7.7065
10 2 5 -1.6762 -2.8117
10 2 6 0.7682 8.7655
10 2 7 -0.3858 -0.7550
10 2 8 -4.4163 4.9135
10 2 9 -1.3205 0.1628
10 2 10 -1.1576 3.3833
10 2 11 -4.0555 1.1931
10 2 12 0.1519 6.8275
10 2 13 -3.1898 0.4668
10 2 14 -1.3877 5.9092
10 2 15 0.0295 -1.3726
10 2 16 -0.9882 6.8140
10 3 0 -9.4150 -5.5795
10 3 1 -2.1386 10.0585
10 3 2 -5.2171 -0.2016
10 3 3 -2.0918 -2.0434
10 3 4 -0.4018 0.3772
10 3 5 -1.2067 -0.3612
10 3 6 -0.8286 1.6621
10 3 7 2.8462 0.7921
10 3 8 -0.7440 2.1994
10 3 9 4.2027 3.2106
10 3 10 1.0092 -1.7101
10 3 11 3.6232 2.7462
10 3 12 2.4755 -0.5091
10 3 13 2.9231 -2.3371
10 3 14 1.1528 1.1149
10 3 15 0.8135 -0.2023
10 3 16 -1.9653 3.3330
10 4 0 2.9845 -15.9777
10 4 1 6.6350 8.6094
10 4 2 3.4668 -8.9764
10 4 3 1.7564 -0.6102
10 4 4 0.9126 -0.9791
10 4 5 2.2130 2.7071
10 4 6 -1.4463 -4.8451
10 4 7 2.9287 -3.5660
10 4 8 -1.5685 -4.5806
10 4 9 1.7618 0.1513
10 4 10 -5.8568 -6.1281
10 4 11 1.0147 1.1553
10 4 12 -5.9954 -2.5790
10 4 13 -0.8024 -1.5679
10 4 14 -0.8610 -1.4132
10 4 15 1.0385 -3.0723
10 5 0 -3.4735 -21.0368
10 5 1 -3.1402 8.9588
10 5 2 -1.8130 -0.4120
10 5 3 -2.6436 6.6169
10 5 4 -1.3357 -1.9711
10 5 5 1.9178 0.3354
10 5 6 -3.4370 -1.2559
10 5 7 -0.9630 5.5941
10 5 8 -3.4812 2.3514
10 5 9 1.2194 3.4618
10 5 10 -2.5985 -2.0150
10 5 11 7.7458 2.2746
10 5 12 -0.9726 1.6428
10 5 13 2.4840 2.1814
10 5 14 0.1548 2.2446
10 6 0 1.3802 7.4436
10 6 1 -1.2808 7.8398
10 6 2 2.9378 -8.7959
10 6 3 0.2497 -4.5520
10 6 4 0.5222 0.4013
10 6 5 0.6523 3.0468
10 6 6 -0.1380 0.7751
10 6 7 3.1354 -0.3990
10 6 8 2.9049 -4.3774
10 6 9 2.8624 1.0977
10 6 10 -2.4470 2.1489
10 6 11 0.2219 0.0366
10 6 12 -4.1023 -0.0590
10 6 13 -0.5049 -1.7933
10 6 14 -0.0787 -1.9628
10 7 0 5.1206 -9.9071
10 7 1 -0.9791 0.1848
10 7 2 1.7357 4.8048
10 7 3 -2.1765 3.6254
10 7 4 0.9927 3.3402
10 7 5 -1.8401 -5.9423
10 7 6 0.4936 -1.8473
10 7 7 -1.5282 1.4638
10 7 8 -2.5605 -1.0981
10 7 9 -1.9323 -0.0626
10 7 10 1.0154 -0.8560
10 7 11 -0.2752 -3.5847
10 7 12 2.6974 0.7427
10 8 0 1.2941 -6.0564
10 8 1 -3.8554 0.7491
10 8 2 0.7195 -3.0567
10 8 3 -1.1724 -6.7770
10 8 4 3.4806 3.9792
10 8 5 -2.2597 -1.0883
10 8 6 3.0080 2.8465
10 8 7 0.0061 1.8363
10 8 8 -0.4006 -0.5550
10 8 9 -0.4815 0.8261
10 8 10 3.3501 0.3285
10 8 11 -4.4639 -0.7802
10 9 0 1.2661 -8.1391
10 9 1 -1.8005 12.5695
10 9 2 1.2873 2.2187
10 9 3 -1.1532 -3.9109
10 9 4 1.3186 3.0794
10 9 5 -4.7110 -1.6658
10 9 6 0.9885 -0.7936
10 9 7 -0.1493 -1.9867
10 9 8 0.9025 -0.7740
10 9 9 0.8692 0.9956
10 9 10 3.0841 1.7265
10 9 11 -3.7828 1.3897
10 10 0 2.9186 -26.8484
10 10 1 2.0774 8.2002
10 10 2 1.3773 -2.2748
10 10 3 -0.8157 -1.3799
10 10 4 1.9729 2.9841
10 10 5 0.5128 1.3357
10 10 6 2.1677 0.0516
10 10 7 -0.8254 0.0059
10 10 8 -2.2263 2.5703
10 10 9 -2.0279 -1.7923
10 10 10 -0.9156 -2.3365
10 10 11 -2.1266 -3.9743
10 11 0 -5.7511 -17.3363
10 11 1 -1.8533 12.9770
10 11 2 -1.5621 -3.5760
10 11 3 -1.6831 -2.7036
10 11 4 -0.6278 -1.9599
10 11 5 -0.1251 -0.1044
10 11 6 -0.9600 -1.5255
10 11 7 0.5254 -1.5176
10 11 8 1.8708 2.0933
10 11 9 3.2711 -2.0409
10 11 10 0.6798 4.0040
10 12 0 -0.3239 -11.4564
10 12 1 4.6520 9.0163
10 12 2 2.0630 -1.8154
10 12 3 0.7529 1.6161
10 12 4 0.3447 1.6911
10 12 5 1.1943 2.3695
10 12 6 -1.7905 -0.0192
10 12 7 -0.8039 -0.6505
10 12 8 -1.5140 1.3979
10 12 9 -0.9724 -2.8238
10 13 0 -4.1357 -3.0633
10 13 1 0.4294 1.4933
10 13 2 -1.9201 -3.6063
10 13 3 -1.6263 -1.3805
10 13 4 -0.2579 -0.0980
10 13 5 1.3014 -0.2240
10 13 6 0.3946 -0.4226
10 13 7 1.4467 1.3884
10 13 8 0.9298 0.8154
10 14 3 0.0482 1.3561
10 14 4 0.2042 0.3818
10 14 5 -1.0309 -2.1238
10 14 6 -0.5661 -2.6256
10 15 0 -0.4174 7.4642
10 15 1 0.0230 -1.3258
10 15 2 0.0599 -2.6195
11 0 1 -3.1057 4.4823
11 0 3 1.5880 27.6024
11 0 5 0.2706 15.2513
11 0 7 -2.4930 16.4377
11 0 9 -2.0474 20.4744
11 0 11 -2.0940 16.7352
11 0 13 -1.1403 14.5295
11 1 0 3.5634 -2.5915
11 1 1 1.3993 1.7763
11 1 2 0.4896 -15.0636
11 1 3 2.0730 4.1577
11 1 4 -1.6050 -15.2653
11 1 5 -1.1805 3.0492
11 1 6 0.4576 -7.8813
11 1 7 3.3775 3.8303
11 1 8 1.2649 -14.8691
11 1 9 4.7100 3.3954
11 1 10 1.8483 -12.6411
11 1 11 -1.0566 1.9147
11 1 12 1.4937 -12.1023
11 1 13 -0.9532 -1.1091
11 1 14 -0.2922 -7.8111
11 2 0 -1.7112 -1.0223
11 2 1 -1.7618 11.5888
11 2 2 -3.8429 -2.6703
11 2 3 0.6054 7.7805
11 2 4 -0.1020 -5.2646
11 2 5 1.9649 2.4284
11 2 6 -0.3299 -2.6564
11 2 7 1.7605 4.5913
11 2 8 -7.9292 -3.8269
11 2 9 -0.2385 6.1577
11 2 10 -2.5127 -2.4249
11 2 11 -1.3847 5.1460
11 2 12 2.9020 -1.5206
11 2 13 0.3909 4.1414
11 2 14 0.5149 3.0629
11 3 0 1.6832 -18.2347
11 3 1 3.3723 -4.2442
11 3 2 1.2399 -6.0005
11 3 3 2.2312 2.2579
11 3 4 -2.0749 3.8288
11 3 5 -1.3993 0.7553
11 3 6 -4.3483 0.6249
11 3 7 3.8591 -0.1654
11 3 8 -1.9071 1.2897
11 3 9 5.5284 1.5079
11 3 10 0.0144 0.0286
11 3 11 -1.3480 0.1918
11 3 12 -0.1023 1.8252
11 3 13 -2.8122 -0.5631
11 3 14 -0.2090 0.6918
11 4 0 -3.7475 9.9558
11 4 1 -2.5245 8.6659
11 4 2 -2.1283 5.1232
11 4 3 -0.3117 -4.0597
11 4 4 0.9393 1.1623
11 4 5 5.4826 -5.2760
11 4 6 0.0986 4.7130
11 4 7 2.9415 -1.5029
11 4 8 -2.5624 1.2263
11 4 9 0.3263 -3.9874
11 4 10 -0.9215 1.7249
11 4 11 1.3589 -3.3986
11 4 12 2.5224 1.7518
11 4 13 -1.3279 -4.6075
11 5 0 3.1559 3.9887
11 5 1 2.3539 -10.2138
11 5 2 3.1289 -1.2845
11 5 3 -1.3346 -2.5935
11 5 4 -3.1770 6.5106
11 5 5 -1.4859 -5.1853
11 5 6 -4.8897 2.2757
11 5 7 -0.3650 -3.9148
11 5 8 1.0559 -0.0908
11 5 9 -0.4696 -1.5246
11 5 10 -1.1154 4.6751
11 5 11 -0.7087 -4.1018
11 5 12 0.2365 3.5643
11 6 0 -1.3971 12.4260
11 6 1 -3.2065 -5.3037
11 6 2 0.8450 1.5248
11 6 3 -1.1081 0.5924
11 6 4 2.6806 1.2879
11 6 5 4.2005 -5.9057
11 6 6 1.0611 3.1456
11 6 7 1.0587 3.2616
11 6 8 1.0344 0.0077
11 6 9 -1.5318 0.2585
11 6 10 1.0736 3.0459
11 6 11 0.4216 -4.2902
11 7 0 1.9069 6.8705
11 7 1 -0.8379 -2.5310
11 7 2 1.4335 -1.6731
11 7 3 -2.1753 5.4288
11 7 4 -0.1907 1.7987
11 7 5 -1.9234 0.2828
11 7 6 -2.1969 1.5656
11 7 7 0.3304 2.4457
11 7 8 -0.4853 -5.0597
11 7 9 -0.4995 -0.1839
11 7 10 1.6256 1.2571
11 8 0 1.7835 7.8734
11 8 1 0.0433 5.7172
11 8 2 1.2780 -7.3394
11 8 3 0.4609 0.7179
11 8 4 1.3807 -5.0306
11 8 5 -1.0469 -0.8339
11 8 6 -0.5349 -3.1747
11 8 7 2.5704 0.2221
11 8 8 -1.7045 -2.5830
11 9 0 -0.6948 -25.9956
11 9 1 -1.2093 -1.1746
11 9 2 -2.6619 -2.6648
11 9 3 -0.0019 6.8500
11 9 4 0.3411 -1.0362
11 9 5 0.9048 2.0621
11 9 6 0.7600 0.5296
11 9 7 2.3275 2.5383
11 9 8 -3.3910 0.3184
11 10 0 0.4495 10.5546
11 10 1 2.5503 16.9509
11 10 2 -0.6295 -0.3154
11 10 3 2.6322 -1.9851
11 10 4 -2.0256 -0.7683
11 10 5 -1.0746 2.6911
11 10 6 -2.1677 0.3623
11 10 7 0.3603 -2.1918
11 10 8 -1.3453 1.6247
11 11 0 -3.7429 -22.6897
11 11 1 0.8533 -8.2728
11 11 2 -2.6334 -2.1364
11 11 3 2.7311 -2.4659
11 11 4 -1.1764 1.0117
11 11 5 2.5789 -2.4033
11 11 6 0.4657 -1.0699
11 11 7 0.7763 -2.2902
12 0 0 -3.9605 3.0723
12 0 2 -0.9489 -0.6078
12 0 4 -1.3267 1.5128
12 0 6 -2.3377 4.4633
12 0 8 -0.9492 2.5239
12 0 10 -3.7978 5.4445
12 0 12 -2.3748 2.7454
12 1 0 -0.2010 3.5393
12 1 1 2.9655 -0.8867
12 1 2 -1.5728 3.7173
12 1 3 -0.3742 -2.2476
12 1 4 0.7197 -1.0541
12 1 5 1.4530 -2.0331
12 1 6 1.4673 4.1668
12 1 7 1.2485 -2.7713
12 1 8 -1.9289 3.7399
12 1 9 1.8614 -2.4763
12 1 10 1.3459 -0.1103
12 1 11 2.9639 -2.6208
12 2 0 -4.0980 -15.8006
12 2 1 1.2570 -6.7632
12 2 2 -0.4191 4.1452
12 2 3 1.5931 -0.7166
12 2 4 1.8410 3.0640
12 2 5 -2.5707 -1.4995
12 2 6 -0.3645 -0.5580
12 2 7 0.8137 -4.4513
12 2 8 -1.2060 2.4284
12 2 9 1.4861 -1.4843
12 2 10 -1.1320 -0.8139
12 2 11 -4.2313 -0.2157
12 3 0 -1.1255 7.3740
12 3 1 2.5262 12.1178
12 3 2 -1.7936 1.5492
12 3 3 -1.9581 -8.2520
12 3 4 0.0938 -2.2817
12 3 5 -2.3565 2.9702
12 3 6 0.8745 1.4529
12 3 7 0.3027 -0.2195
12 3 8 -1.8588 -0.0518
12 3 9 1.0127 -0.4857
12 3 10 0.8422 -0.5760
12 3 11 0.1144 2.5052
12 4 0 -2.5159 -26.1193
12 4 1 1.4855 -3.8618
12 4 2 -0.2995 -0.8212
12 4 3 0.4462 5.5184
12 4 4 1.9958 1.7323
12 4 5 0.7892 1.1906
12 4 6 1.3685 -4.5138
12 4 7 0.5657 2.3365
12 4 8 -0.8319 1.6117
12 4 9 0.8400 2.2461
12 4 10 -1.6621 -0.3130
12 5 0 -2.4499 10.3454
12 5 1 1.4008 12.9976
12 5 2 -0.0314 -5.0827
12 5 3 -0.2068 0.9389
12 5 4 -0.7095 -3.2292
12 5 5 -0.3145 1.5974
12 5 6 -1.8439 -1.0182
12 5 7 0.2081 2.3749
12 5 8 -0.1366 -3.7584
12 5 9 2.6542 -2.7912
12 6 0 -1.8336 -9.3029
12 6 1 1.6806 -3.6871
12 6 2 -0.4790 -8.7195
12 6 3 -0.7773 5.1528
12 6 4 -0.2703 -0.1804
12 6 5 1.6712 -2.0720
12 6 6 -1.7136 0.6569
12 6 7 1.1637 2.1666
12 6 8 -2.6887 -1.2413
12 7 0 -2.2978 15.2747
12 7 1 1.3988 7.1496
12 7 2 -0.1700 -1.8475
12 7 3 -0.6893 4.1587
12 7 4 0.3092 1.6035
12 7 5 1.0167 -5.9813
12 8 0 -1.2880 -8.1735
12 8 1 1.2474 -8.4542
12 8 2 0.1421 -2.9142
13 0 1 0.9448 3.7561
13 0 3 3.4639 2.2258
13 0 5 4.5712 -3.8508
13 0 7 1.3843 -5.7722
13 1 0 -0.6228 -10.3358
13 1 1 1.6834 4.9972
13 1 2 -1.6835 -0.0052
13 1 3 -0.5922 -2.3720
13 1 4 -3.5040 1.7825
13 1 5 -1.7464 -2.8312
13 1 6 -3.0026 9.7886
13 1 7 -0.1795 1.7227
13 1 8 -0.8370 9.2617
13 2 0 -3.8953 -8.1988
13 2 1 0.6374 11.4697
13 2 2 -1.4481 -1.9370
13 2 3 0.9827 -3.2186
13 2 4 1.6536 2.0762
13 2 5 1.3886 -3.3674
13 2 6 1.1598 -1.1626
13 2 7 2.4730 -14.5034
13 3 0 0.1513 -33.6250
13 3 1 4.3263 3.3563
13 3 2 -0.0040 -1.7953
13 3 3 0.4857 -1.5049
13 3 4 1.2626 0.4146
13 3 5 -0.0730 0.3033
13 3 6 -0.1347 6.7617
13 3 7 -0.3251 0.8360
13 4 0 -5.9083 -1.5878
13 4 1 -0.7700 17.1949
13 4 2 -2.7976 2.0139
13 4 3 -1.2905 -0.8110
13 4 4 -1.6865 1.3847
13 4 5 -3.1175 1.7734
13 4 6 -1.2991 -0.3629
13 5 0 1.0735 -16.0836
13 5 1 4.6267 -2.3360
13 5 2 0.9559 -5.5240
13 5 3 2.0481 -3.5512
13 5 4 2.9436 -2.3303
0 0 0 0.0 0.0
;
_shelx_fab_checksum                81570
_olex2_submission_special_instructions  'No special instructions were received'
