data_Ho-U6
_audit_creation_date               2022-12-02
_audit_creation_method
;
Olex2 1.3
(compiled 2020.11.12 svn.r5f609507 for OlexSys, GUI svn.r6408)
;
_shelx_SHELXL_version_number       '2018/3'
_audit_contact_author_address      ?
_audit_contact_author_email        ?
_audit_contact_author_name         ''
_audit_contact_author_phone        ?
_publ_contact_author_id_orcid      ?
_publ_section_references
;
Dolomanov, O.V., Bourhis, L.J., Gildea, R.J, Howard, J.A.K. & Puschmann, H.
 (2009), J. Appl. Cryst. 42, 339-341.

Sheldrick, G.M. (2015). Acta Cryst. C71, 3-8.
;
_chemical_name_common              ?
_chemical_name_systematic          ?
_chemical_formula_moiety           'Ho4 O79 S12 U6'
_chemical_formula_sum              'Ho4 O79 S12 U6'
_chemical_formula_weight           3736.62
_chemical_melting_point            ?
loop_
  _atom_type_symbol
  _atom_type_description
  _atom_type_scat_dispersion_real
  _atom_type_scat_dispersion_imag
  _atom_type_scat_source
 'Ho' 'Ho' -14.9734 3.7046
 'International Tables Vol C Tables 4.2.6.8 and 6.1.1.4'
 'O' 'O' 0.0492 0.0322 'International Tables Vol C Tables 4.2.6.8 and 6.1.1.4'
 'S' 'S' 0.3331 0.5567 'International Tables Vol C Tables 4.2.6.8 and 6.1.1.4'
 'U' 'U' -4.3638 13.4090 'International Tables Vol C Tables 4.2.6.8 and 6.1.1.4'

_shelx_space_group_comment
;
The symmetry employed for this shelxl refinement is uniquely defined
by the following loop, which should always be used as a source of
symmetry information in preference to the above space-group names.
They are only intended as comments.
;
_space_group_crystal_system        'monoclinic'
_space_group_IT_number             15
_space_group_name_H-M_alt          'C 1 2/c 1'
_space_group_name_Hall             '-C 2yc'
loop_
  _space_group_symop_operation_xyz
 'x, y, z'
 '-x, y, -z+1/2'
 'x+1/2, y+1/2, z'
 '-x+1/2, y+1/2, -z+1/2'
 '-x, -y, -z'
 'x, -y, z-1/2'
 '-x+1/2, -y+1/2, -z'
 'x+1/2, -y+1/2, z-1/2'

# end Validation Reply Form
_cell_length_a                     24.9515(2)
_cell_length_b                     11.78997(8)
_cell_length_c                     26.3280(2)
_cell_angle_alpha                  90
_cell_angle_beta                   113.4350(11)
_cell_angle_gamma                  90
_cell_volume                       7106.22(12)
_cell_formula_units_Z              4
_cell_measurement_reflns_used      9201
_cell_measurement_temperature      293(2)
_cell_measurement_theta_max        66.725
_cell_measurement_theta_min        3.514
_shelx_estimated_absorpt_T_max     0.366
_shelx_estimated_absorpt_T_min     0.146
_exptl_absorpt_coefficient_mu      50.348
_exptl_absorpt_correction_T_max    0.166
_exptl_absorpt_correction_T_min    0.055
_exptl_absorpt_correction_type     multi-scan
_exptl_absorpt_process_details     .
_exptl_absorpt_special_details     ?
_exptl_crystal_colour              'clear green'
_exptl_crystal_colour_lustre       clear
_exptl_crystal_colour_modifier     .
_exptl_crystal_colour_primary      green
_exptl_crystal_density_diffrn      3.493
_exptl_crystal_density_meas        ?
_exptl_crystal_density_method      ?
_exptl_crystal_description         needle
_exptl_crystal_F_000               6576
_exptl_crystal_size_max            0.062
_exptl_crystal_size_mid            0.042
_exptl_crystal_size_min            0.025
_exptl_transmission_factor_max     ?
_exptl_transmission_factor_min     ?
_diffrn_reflns_av_R_equivalents    0.0510
_diffrn_reflns_av_unetI/netI       0.0468
_diffrn_reflns_Laue_measured_fraction_full  0.996
_diffrn_reflns_Laue_measured_fraction_max  0.957
_diffrn_reflns_limit_h_max         31
_diffrn_reflns_limit_h_min         -30
_diffrn_reflns_limit_k_max         13
_diffrn_reflns_limit_k_min         -14
_diffrn_reflns_limit_l_max         27
_diffrn_reflns_limit_l_min         -33
_diffrn_reflns_number              25827
_diffrn_reflns_point_group_measured_fraction_full  0.996
_diffrn_reflns_point_group_measured_fraction_max  0.957
_diffrn_reflns_theta_full          67.684
_diffrn_reflns_theta_max           76.061
_diffrn_reflns_theta_min           3.660
_diffrn_ambient_temperature        293(2)
_diffrn_detector_area_resol_mean   ?
_diffrn_measured_fraction_theta_full  0.996
_diffrn_measured_fraction_theta_max  0.957
_diffrn_measurement_device_type    'XtaLAB Synergy, Dualflex, HyPix'
_diffrn_measurement_method         ?
_diffrn_radiation_type             CuK\a
_diffrn_radiation_wavelength       1.54184
_diffrn_source                     ?
_reflns_Friedel_coverage           0.000
_reflns_Friedel_fraction_full      .
_reflns_Friedel_fraction_max       .
_reflns_number_gt                  6825
_reflns_number_total               7110
_reflns_special_details
;
 Reflections were merged by SHELXL according to the crystal
 class for the calculation of statistics and refinement.
 
 Structure factors included contributions from the .fab file.
 
 _reflns_Friedel_fraction is defined as the number of unique
 Friedel pairs measured divided by the number that would be
 possible theoretically, ignoring centric projections and
 systematic absences.
;
_reflns_threshold_expression       'I > 2\s(I)'
_computing_cell_refinement         ?
_computing_data_collection         ?
_computing_data_reduction          ?
_computing_molecular_graphics      'Olex2 1.3 (Dolomanov et al., 2009)'
_computing_publication_material    'Olex2 1.3 (Dolomanov et al., 2009)'
_computing_structure_refinement    'SHELXL 2018/3 (Sheldrick, 2015)'
_computing_structure_solution      'SHELXT 2018/2 (Sheldrick, 2018)'
_refine_diff_density_max           3.506
_refine_diff_density_min           -3.606
_refine_diff_density_rms           0.484
_refine_ls_extinction_coef         .
_refine_ls_extinction_method       none
_refine_ls_goodness_of_fit_ref     1.137
_refine_ls_hydrogen_treatment      undef
_refine_ls_matrix_type             full
_refine_ls_number_parameters       394
_refine_ls_number_reflns           7110
_refine_ls_number_restraints       0
_refine_ls_R_factor_all            0.0450
_refine_ls_R_factor_gt             0.0402
_refine_ls_restrained_S_all        1.137
_refine_ls_shift/su_max            0.001
_refine_ls_shift/su_mean           0.000
_refine_ls_structure_factor_coef   Fsqd
_refine_ls_weighting_details      
 'w=1/[\s^2^(Fo^2^)+(0.0527P)^2^+469.4575P] where P=(Fo^2^+2Fc^2^)/3'
_refine_ls_weighting_scheme        calc
_refine_ls_wR_factor_gt            0.1062
_refine_ls_wR_factor_ref           0.1243
_refine_special_details            ?
_olex2_refinement_description
;
1. Others
 Fixed Sof: O35(0.25) O36(0.25)
;
_atom_sites_solution_hydrogens     .
_atom_sites_solution_primary       ?
_atom_sites_solution_secondary     ?
loop_
  _atom_site_label
  _atom_site_type_symbol
  _atom_site_fract_x
  _atom_site_fract_y
  _atom_site_fract_z
  _atom_site_U_iso_or_equiv
  _atom_site_adp_type
  _atom_site_occupancy
  _atom_site_site_symmetry_order
  _atom_site_calc_flag
  _atom_site_refinement_flags_posn
  _atom_site_refinement_flags_adp
  _atom_site_refinement_flags_occupancy
  _atom_site_disorder_assembly
  _atom_site_disorder_group
 U1 U 0.44550(2) 0.56163(3) 0.32248(2) 0.00580(11) Uani 1 1 d . . . . .
 U2 U 0.500000 0.78969(4) 0.250000 0.00890(12) Uani 1 2 d S T P A .
 U3 U 0.500000 0.33010(4) 0.250000 0.00719(12) Uani 1 2 d S T P A .
 U4 U 0.39459(2) 0.55938(3) 0.16218(2) 0.00771(11) Uani 1 1 d . . . . .
 Ho1 Ho 0.28402(3) 0.93178(6) 0.22637(3) 0.00579(17) Uani 1 1 d . . . . .
 Ho2 Ho 0.57165(3) 0.19965(6) 0.46770(3) 0.00940(17) Uani 1 1 d . . . . .
 S2 S 0.29631(10) 0.6132(2) 0.22846(10) 0.0081(5) Uani 1 1 d . . . . .
 S3 S 0.42081(10) 0.8663(2) 0.33728(10) 0.0078(5) Uani 1 1 d . . . . .
 S5 S 0.43772(10) 0.2574(2) 0.35103(10) 0.0076(5) Uani 1 1 d . . . . .
 S4 S 0.56538(10) 0.5188(2) 0.45705(10) 0.0087(5) Uani 1 1 d . . . . .
 S1 S 0.35855(11) 0.8617(2) 0.13700(11) 0.0106(5) Uani 1 1 d . . . . .
 S6 S 0.63549(12) 0.2616(2) 0.36804(11) 0.0132(5) Uani 1 1 d . . . . .
 O1 O 0.3879(4) 0.5590(6) 0.3941(3) 0.0136(16) Uani 1 1 d . . . . .
 O2 O 0.4495(3) 0.8858(6) 0.2982(3) 0.0122(15) Uiso 1 1 d . . . . .
 O3 O 0.1975(4) 0.8641(8) 0.1567(3) 0.0210(18) Uani 1 1 d . . . . .
 O4 O 0.5065(4) 0.5553(7) 0.4187(3) 0.0183(18) Uani 1 1 d . . . . .
 O5 O 0.3599(3) 0.8983(7) 0.3111(3) 0.0175(17) Uani 1 1 d . . . . .
 O6 O 0.6063(3) 0.5400(8) 0.4304(3) 0.0185(17) Uani 1 1 d . . . . .
 O7 O 0.3093(3) 0.5670(6) 0.1828(3) 0.0121(16) Uiso 1 1 d . . . . .
 O8 O 0.5826(4) 0.5838(8) 0.5081(4) 0.0253(19) Uani 1 1 d . . . . .
 O9 O 0.3823(4) 0.1970(8) 0.3339(4) 0.0203(18) Uani 1 1 d . . . . .
 O10 O 0.3402(4) 0.5702(7) 0.2810(3) 0.0141(16) Uiso 1 1 d . . . . .
 O11 O 0.2385(4) 0.5751(7) 0.2232(4) 0.0187(17) Uiso 1 1 d . . . . .
 O12 O 0.5641(4) 0.3981(7) 0.4690(4) 0.025(2) Uani 1 1 d . . . . .
 O13 O 0.2291(4) 0.8409(7) 0.2733(4) 0.0207(18) Uani 1 1 d . . . . .
 O14 O 0.4261(4) 0.3803(7) 0.3510(4) 0.0199(18) Uiso 1 1 d . . . . .
 O15 O 0.3158(4) 0.9044(8) 0.1567(4) 0.0250(19) Uiso 1 1 d . . . . .
 O16 O 0.4650(3) 0.2325(6) 0.3115(3) 0.0132(15) Uani 1 1 d . . . . .
 O17 O 0.6582(4) 0.0854(9) 0.4881(4) 0.030(2) Uani 1 1 d . . . . .
 O18 O 0.4501(4) 0.9332(7) 0.3867(3) 0.0175(18) Uani 1 1 d . . . . .
 O19 O 0.6561(4) 0.3783(7) 0.3643(4) 0.0180(17) Uani 1 1 d . . . . .
 O20 O 0.4188(4) 0.8871(7) 0.1782(4) 0.024(2) Uani 1 1 d . . . . .
 O21 O 0.6112(5) 0.2640(8) 0.4101(4) 0.027(2) Uani 1 1 d . . . . .
 O22 O 0.5878(4) 0.2314(8) 0.3139(4) 0.0238(19) Uani 1 1 d . . . . .
 O23 O 0.5491(4) 0.0526(7) 0.3997(4) 0.027(2) Uani 1 1 d . . . . .
 O24 O 0.3508(4) 0.7375(7) 0.1282(3) 0.0182(17) Uiso 1 1 d . . . . .
 O25 O 0.4763(4) 0.2229(8) 0.4062(4) 0.0236(19) Uani 1 1 d . . . . .
 O26 O 0.5607(5) 0.0343(9) 0.5125(5) 0.037(3) Uani 1 1 d . . . . .
 O27 O 0.4240(4) 0.7452(7) 0.3516(4) 0.0204(18) Uiso 1 1 d . . . . .
 O28 O 0.2416(4) 1.0861(9) 0.1608(4) 0.030(2) Uani 1 1 d . . . . .
 O29 O 0.3550(4) 1.0752(8) 0.2392(4) 0.0223(19) Uani 1 1 d . . . . .
 O30 O 0.5166(5) 0.2442(8) 0.5214(4) 0.031(2) Uani 1 1 d . . . . .
 O31 O 0.3480(5) 0.9145(9) 0.0839(4) 0.034(2) Uani 1 1 d . . . . .
 O32 O 0.6825(4) 0.1816(8) 0.3808(4) 0.030(2) Uani 1 1 d . . . . .
 O33 O 0.2993(4) 0.7356(7) 0.2277(4) 0.027(2) Uani 1 1 d . . . . .
 O34 O 0.6466(6) 0.2613(10) 0.5512(5) 0.058(4) Uani 1 1 d . . . . .
 O35 O 0.500000 0.097(2) 0.250000 0.030(6) Uani 0.5 2 d S T P . .
 O1B O 0.4329(4) 0.6590(8) 0.2431(4) 0.0231(19) Uiso 1 1 d . . . A 2
 O36 O 0.500000 0.029(2) 0.250000 0.015(5) Uiso 0.5 2 d S . P A .
 O1A O 0.4142(4) 0.4376(8) 0.2429(4) 0.024(2) Uiso 1 1 d . . . A 1
 O2B O 0.4780(4) 0.4629(8) 0.1839(4) 0.0190(17) Uiso 1 1 d . . . A 1
 O2A O 0.4723(4) 0.6840(8) 0.1633(4) 0.0218(19) Uiso 1 1 d . . . A 1
 O37 O 0.7100(5) 0.5537(10) 0.4257(5) 0.041(3) Uiso 1 1 d . . . . .

loop_
  _atom_site_aniso_label
  _atom_site_aniso_U_11
  _atom_site_aniso_U_22
  _atom_site_aniso_U_33
  _atom_site_aniso_U_23
  _atom_site_aniso_U_13
  _atom_site_aniso_U_12
 U1 0.00443(17) 0.00381(17) 0.01026(19) 0.00084(11) 0.00410(14) 0.00055(11)
 U2 0.0092(2) 0.0051(2) 0.0165(3) 0.000 0.0094(2) 0.000
 U3 0.0063(2) 0.0045(2) 0.0122(2) 0.000 0.00507(18) 0.000
 U4 0.00684(18) 0.00406(18) 0.0148(2) 0.00018(11) 0.00710(14) 0.00024(11)
 Ho1 0.0038(3) 0.0042(3) 0.0095(4) -0.0002(3) 0.0027(3) 0.0001(2)
 Ho2 0.0101(4) 0.0066(4) 0.0094(4) 0.0003(3) 0.0016(3) 0.0019(3)
 S2 0.0037(10) 0.0081(11) 0.0135(12) -0.0009(9) 0.0045(9) 0.0019(8)
 S3 0.0064(11) 0.0069(11) 0.0121(11) -0.0002(9) 0.0058(9) 0.0018(8)
 S5 0.0058(11) 0.0049(10) 0.0102(11) 0.0026(9) 0.0011(9) -0.0007(8)
 S4 0.0045(11) 0.0087(12) 0.0093(11) -0.0024(9) -0.0011(9) 0.0016(9)
 S1 0.0119(12) 0.0064(11) 0.0143(12) 0.0062(9) 0.0062(10) 0.0034(9)
 S6 0.0164(13) 0.0094(12) 0.0155(12) 0.0029(9) 0.0083(11) 0.0057(10)
 O1 0.014(4) 0.019(4) 0.009(4) -0.001(3) 0.005(3) -0.001(3)
 O3 0.018(4) 0.027(5) 0.017(4) -0.004(4) 0.006(3) -0.011(4)
 O4 0.015(4) 0.030(5) 0.005(4) -0.001(3) -0.002(3) 0.002(3)
 O5 0.003(4) 0.023(4) 0.020(4) -0.003(3) -0.002(3) 0.003(3)
 O6 0.006(4) 0.025(4) 0.015(4) 0.004(3) -0.006(3) 0.001(3)
 O8 0.026(5) 0.027(5) 0.024(5) -0.004(4) 0.011(4) -0.007(4)
 O9 0.014(4) 0.025(4) 0.024(4) -0.005(4) 0.009(3) -0.012(3)
 O12 0.042(6) 0.007(4) 0.037(5) 0.000(4) 0.025(5) -0.002(4)
 O13 0.028(5) 0.015(4) 0.025(4) -0.004(3) 0.017(4) -0.003(3)
 O16 0.016(4) 0.008(3) 0.020(4) 0.004(3) 0.012(3) 0.003(3)
 O17 0.023(5) 0.040(6) 0.018(4) -0.005(4) 0.000(4) 0.000(4)
 O18 0.017(4) 0.023(4) 0.010(4) -0.008(3) 0.003(3) -0.011(3)
 O19 0.018(4) 0.012(4) 0.029(5) 0.007(3) 0.015(4) 0.005(3)
 O20 0.020(4) 0.012(4) 0.034(5) -0.005(4) 0.004(4) 0.000(3)
 O21 0.041(6) 0.024(5) 0.029(5) 0.005(4) 0.028(4) 0.002(4)
 O22 0.025(5) 0.019(4) 0.023(5) -0.003(4) 0.005(4) 0.000(4)
 O23 0.016(4) 0.021(5) 0.037(6) -0.021(4) 0.002(4) -0.002(3)
 O25 0.015(4) 0.034(5) 0.015(4) 0.006(4) -0.001(3) 0.006(4)
 O26 0.044(6) 0.024(5) 0.055(7) 0.023(5) 0.034(6) 0.018(5)
 O28 0.015(4) 0.037(5) 0.031(5) 0.019(4) 0.003(4) 0.001(4)
 O29 0.020(4) 0.023(4) 0.028(5) -0.005(4) 0.013(4) -0.009(4)
 O30 0.055(7) 0.022(5) 0.027(5) -0.003(4) 0.027(5) -0.003(5)
 O31 0.053(7) 0.023(5) 0.034(6) 0.003(4) 0.025(5) -0.011(5)
 O32 0.025(5) 0.023(5) 0.037(5) 0.003(4) 0.008(4) 0.019(4)
 O33 0.023(5) 0.009(4) 0.047(6) -0.005(4) 0.013(4) 0.002(3)
 O34 0.056(8) 0.028(6) 0.047(7) -0.018(5) -0.024(6) 0.022(5)
 O35 0.034(16) 0.011(14) 0.058(19) 0.000 0.033(15) 0.000

_geom_special_details
;
 All esds (except the esd in the dihedral angle between two l.s. planes)
 are estimated using the full covariance matrix.  The cell esds are taken
 into account individually in the estimation of esds in distances, angles
 and torsion angles; correlations between esds in cell parameters are only
 used when they are defined by crystal symmetry.  An approximate (isotropic)
 treatment of cell esds is used for estimating esds involving l.s. planes.
;
loop_
  _geom_bond_atom_site_label_1
  _geom_bond_atom_site_label_2
  _geom_bond_distance
  _geom_bond_site_symmetry_2
  _geom_bond_publ_flag
 U1 U2 3.8451(4) . ?
 U1 U3 3.8739(4) . ?
 U1 U4 3.8474(5) 2_655 ?
 U1 U4 3.8939(5) . ?
 U1 O1 2.788(8) . ?
 U1 O4 2.383(8) . ?
 U1 O10 2.414(8) . ?
 U1 O14 2.378(9) . ?
 U1 O27 2.426(9) . ?
 U1 O1B 2.294(9) . ?
 U1 O1A 2.416(9) . ?
 U1 O2B 2.299(9) 2_655 ?
 U1 O2A 2.412(9) 2_655 ?
 U2 U4 3.8471(5) 2_655 ?
 U2 U4 3.8471(5) . ?
 U2 O2 2.398(8) 2_655 ?
 U2 O2 2.398(8) . ?
 U2 O20 2.440(9) 2_655 ?
 U2 O20 2.440(9) . ?
 U2 O1B 2.229(9) . ?
 U2 O1B 2.229(9) 2_655 ?
 U2 O36 2.82(3) 1_565 ?
 U2 O2A 2.446(9) . ?
 U2 O2A 2.446(9) 2_655 ?
 U3 U4 3.8385(4) . ?
 U3 U4 3.8385(4) 2_655 ?
 U3 O16 2.415(8) 2_655 ?
 U3 O16 2.415(8) . ?
 U3 O22 2.459(9) 2_655 ?
 U3 O22 2.459(9) . ?
 U3 O35 2.75(3) . ?
 U3 O1A 2.430(9) . ?
 U3 O1A 2.430(10) 2_655 ?
 U3 O2B 2.240(9) . ?
 U3 O2B 2.240(9) 2_655 ?
 U4 O6 2.440(9) 2_655 ?
 U4 O7 2.400(8) . ?
 U4 O19 2.437(8) 2_655 ?
 U4 O24 2.372(8) . ?
 U4 O1B 2.283(9) . ?
 U4 O1A 2.448(9) . ?
 U4 O2B 2.236(9) . ?
 U4 O2A 2.424(9) . ?
 U4 O37 2.714(12) 2_655 ?
 Ho1 O3 2.348(8) . ?
 Ho1 O5 2.315(8) . ?
 Ho1 O11 2.350(9) 4 ?
 Ho1 O13 2.429(9) . ?
 Ho1 O15 2.292(9) . ?
 Ho1 O28 2.441(9) . ?
 Ho1 O29 2.374(9) . ?
 Ho1 O33 2.342(8) . ?
 Ho2 O12 2.348(8) . ?
 Ho2 O17 2.418(10) . ?
 Ho2 O21 2.245(9) . ?
 Ho2 O23 2.393(8) . ?
 Ho2 O25 2.300(8) . ?
 Ho2 O26 2.351(10) . ?
 Ho2 O30 2.387(10) . ?
 Ho2 O34 2.364(11) . ?
 S2 O7 1.467(8) . ?
 S2 O10 1.471(8) . ?
 S2 O11 1.465(9) . ?
 S2 O33 1.445(9) . ?
 S3 O2 1.488(8) . ?
 S3 O5 1.447(8) . ?
 S3 O18 1.447(8) . ?
 S3 O27 1.471(9) . ?
 S5 O9 1.458(8) . ?
 S5 O14 1.478(9) . ?
 S5 O16 1.482(8) . ?
 S5 O25 1.446(8) . ?
 S4 O4 1.478(8) . ?
 S4 O6 1.471(9) . ?
 S4 O8 1.457(9) . ?
 S4 O12 1.461(9) . ?
 S1 O15 1.450(10) . ?
 S1 O20 1.493(9) . ?
 S1 O24 1.483(9) . ?
 S1 O31 1.456(10) . ?
 S6 O19 1.486(9) . ?
 S6 O21 1.458(9) . ?
 S6 O22 1.493(9) . ?
 S6 O32 1.437(9) . ?
 O35 O36 0.80(3) . ?

loop_
  _geom_angle_atom_site_label_1
  _geom_angle_atom_site_label_2
  _geom_angle_atom_site_label_3
  _geom_angle
  _geom_angle_site_symmetry_1
  _geom_angle_site_symmetry_3
  _geom_angle_publ_flag
 U2 U1 U3 89.172(10) . . ?
 U2 U1 U4 59.614(7) . . ?
 U2 U1 U4 60.015(7) . 2_655 ?
 U3 U1 U4 59.228(7) . . ?
 U4 U1 U3 59.620(7) 2_655 . ?
 U4 U1 U4 89.508(10) 2_655 . ?
 O1 U1 U2 136.25(16) . . ?
 O1 U1 U3 134.55(16) . . ?
 O1 U1 U4 134.35(16) . . ?
 O1 U1 U4 136.12(16) . 2_655 ?
 O4 U1 U2 110.3(2) . . ?
 O4 U1 U3 107.5(2) . . ?
 O4 U1 U4 72.0(2) . 2_655 ?
 O4 U1 U4 161.4(2) . . ?
 O4 U1 O1 64.1(3) . . ?
 O4 U1 O10 127.1(3) . . ?
 O4 U1 O27 79.6(3) . . ?
 O4 U1 O1A 138.8(3) . . ?
 O4 U1 O2A 73.1(3) . 2_655 ?
 O10 U1 U2 106.41(19) . . ?
 O10 U1 U3 109.79(19) . . ?
 O10 U1 U4 71.49(19) . . ?
 O10 U1 U4 160.87(19) . 2_655 ?
 O10 U1 O1 63.0(3) . . ?
 O10 U1 O27 76.6(3) . . ?
 O10 U1 O1A 73.4(3) . . ?
 O14 U1 U2 160.3(2) . . ?
 O14 U1 U3 71.2(2) . . ?
 O14 U1 U4 108.5(2) . . ?
 O14 U1 U4 107.1(2) . 2_655 ?
 O14 U1 O1 63.4(3) . . ?
 O14 U1 O4 76.1(3) . . ?
 O14 U1 O10 81.9(3) . . ?
 O14 U1 O27 127.1(3) . . ?
 O14 U1 O1A 72.2(3) . . ?
 O14 U1 O2A 139.1(3) . 2_655 ?
 O27 U1 U2 72.5(2) . . ?
 O27 U1 U3 161.7(2) . . ?
 O27 U1 U4 109.3(2) . . ?
 O27 U1 U4 108.9(2) . 2_655 ?
 O27 U1 O1 63.8(3) . . ?
 O1B U1 U2 31.3(2) . . ?
 O1B U1 U3 81.4(2) . . ?
 O1B U1 U4 31.6(2) . . ?
 O1B U1 O1 134.5(3) . . ?
 O1B U1 O4 141.5(3) . . ?
 O1B U1 O10 80.6(3) . . ?
 O1B U1 O14 140.0(3) . . ?
 O1B U1 O27 82.8(3) . . ?
 O1A U1 U2 92.8(2) . . ?
 O1A U1 U3 37.0(2) . . ?
 O1A U1 U4 37.1(2) . . ?
 O1A U1 U4 92.9(2) . 2_655 ?
 O1A U1 O1 120.3(3) . . ?
 O1A U1 O27 141.1(3) . . ?
 O2B U1 U2 81.3(2) 2_655 . ?
 O2B U1 U3 31.0(2) 2_655 . ?
 O2B U1 U4 80.7(2) 2_655 . ?
 O2B U1 U4 31.5(2) 2_655 2_655 ?
 O2B U1 O1 135.3(3) 2_655 . ?
 O2B U1 O4 82.2(3) 2_655 . ?
 O2B U1 O10 140.7(3) 2_655 . ?
 O2B U1 O14 81.2(3) 2_655 . ?
 O2B U1 O27 140.3(3) 2_655 . ?
 O2B U1 O1A 67.7(3) 2_655 . ?
 O2B U1 O2A 68.5(3) 2_655 2_655 ?
 O2A U1 U2 38.0(2) 2_655 . ?
 O2A U1 U3 93.1(2) 2_655 . ?
 O2A U1 U4 93.6(2) 2_655 . ?
 O2A U1 U4 37.4(2) 2_655 2_655 ?
 O2A U1 O1 122.5(3) 2_655 . ?
 O2A U1 O10 138.7(3) 2_655 . ?
 O2A U1 O27 72.5(3) 2_655 . ?
 O2A U1 O1A 117.3(3) 2_655 . ?
 U1 U2 U1 91.262(13) 2_655 . ?
 U1 U2 U4 60.023(9) . 2_655 ?
 U1 U2 U4 60.824(9) . . ?
 U1 U2 U4 60.023(9) 2_655 . ?
 U1 U2 U4 60.825(9) 2_655 2_655 ?
 U4 U2 U4 90.208(14) 2_655 . ?
 O2 U2 U1 72.79(18) 2_655 2_655 ?
 O2 U2 U1 163.10(18) . 2_655 ?
 O2 U2 U1 72.79(18) . . ?
 O2 U2 U1 163.10(18) 2_655 . ?
 O2 U2 U4 105.91(18) 2_655 2_655 ?
 O2 U2 U4 105.91(18) . . ?
 O2 U2 U4 113.13(18) . 2_655 ?
 O2 U2 U4 113.13(18) 2_655 . ?
 O2 U2 O2 123.6(4) 2_655 . ?
 O2 U2 O20 79.4(3) 2_655 . ?
 O2 U2 O20 74.9(3) . . ?
 O2 U2 O20 74.9(3) 2_655 2_655 ?
 O2 U2 O20 79.4(3) . 2_655 ?
 O2 U2 O36 61.80(18) . 1_565 ?
 O2 U2 O36 61.80(18) 2_655 1_565 ?
 O2 U2 O2A 136.2(3) . . ?
 O2 U2 O2A 76.1(3) . 2_655 ?
 O2 U2 O2A 136.2(3) 2_655 2_655 ?
 O2 U2 O2A 76.1(3) 2_655 . ?
 O20 U2 U1 111.4(2) 2_655 2_655 ?
 O20 U2 U1 111.4(2) . . ?
 O20 U2 U1 107.0(2) 2_655 . ?
 O20 U2 U1 107.0(2) . 2_655 ?
 O20 U2 U4 73.0(2) . . ?
 O20 U2 U4 163.1(2) . 2_655 ?
 O20 U2 U4 73.0(2) 2_655 2_655 ?
 O20 U2 U4 163.1(2) 2_655 . ?
 O20 U2 O20 123.8(4) 2_655 . ?
 O20 U2 O36 61.9(2) . 1_565 ?
 O20 U2 O36 61.9(2) 2_655 1_565 ?
 O20 U2 O2A 71.2(3) . . ?
 O20 U2 O2A 143.3(3) . 2_655 ?
 O20 U2 O2A 143.4(3) 2_655 . ?
 O20 U2 O2A 71.2(3) 2_655 2_655 ?
 O1B U2 U1 83.0(2) 2_655 . ?
 O1B U2 U1 32.3(2) . . ?
 O1B U2 U4 31.9(2) . . ?
 O1B U2 U4 82.7(2) 2_655 . ?
 O1B U2 O2 145.0(3) 2_655 . ?
 O1B U2 O2 80.5(3) . . ?
 O1B U2 O20 84.1(3) . . ?
 O1B U2 O20 138.9(3) 2_655 . ?
 O1B U2 O1B 92.5(5) 2_655 . ?
 O36 U2 U1 134.370(7) 1_565 2_655 ?
 O36 U2 U1 134.369(7) 1_565 . ?
 O36 U2 U4 134.896(7) 1_565 2_655 ?
 O36 U2 U4 134.896(7) 1_565 . ?
 O2A U2 U1 37.4(2) 2_655 . ?
 O2A U2 U1 94.7(2) . . ?
 O2A U2 U1 37.4(2) . 2_655 ?
 O2A U2 U1 94.7(2) 2_655 2_655 ?
 O2A U2 U4 37.6(2) 2_655 2_655 ?
 O2A U2 U4 37.6(2) . . ?
 O2A U2 U4 94.2(2) 2_655 . ?
 O2A U2 U4 94.2(2) . 2_655 ?
 O2A U2 O36 120.6(2) . 1_565 ?
 O2A U2 O36 120.6(2) 2_655 1_565 ?
 O2A U2 O2A 118.8(4) 2_655 . ?
 U1 U3 U1 90.393(13) 2_655 . ?
 U4 U3 U1 59.848(9) 2_655 . ?
 U4 U3 U1 60.647(9) 2_655 2_655 ?
 U4 U3 U1 60.646(9) . . ?
 U4 U3 U1 59.848(9) . 2_655 ?
 U4 U3 U4 90.466(14) 2_655 . ?
 O16 U3 U1 163.21(18) 2_655 . ?
 O16 U3 U1 73.39(18) . . ?
 O16 U3 U1 163.21(18) . 2_655 ?
 O16 U3 U1 73.39(18) 2_655 2_655 ?
 O16 U3 U4 106.01(19) 2_655 . ?
 O16 U3 U4 113.29(18) . . ?
 O16 U3 U4 106.00(19) . 2_655 ?
 O16 U3 U4 113.30(18) 2_655 2_655 ?
 O16 U3 O16 123.1(4) . 2_655 ?
 O16 U3 O22 77.1(3) 2_655 2_655 ?
 O16 U3 O22 77.1(3) . . ?
 O16 U3 O22 76.8(3) 2_655 . ?
 O16 U3 O22 76.8(3) . 2_655 ?
 O16 U3 O35 61.54(18) . . ?
 O16 U3 O35 61.54(18) 2_655 . ?
 O16 U3 O1A 137.7(3) . 2_655 ?
 O16 U3 O1A 76.0(3) 2_655 2_655 ?
 O16 U3 O1A 76.0(3) . . ?
 O16 U3 O1A 137.7(3) 2_655 . ?
 O22 U3 U1 112.9(2) 2_655 2_655 ?
 O22 U3 U1 106.2(2) . 2_655 ?
 O22 U3 U1 112.8(2) . . ?
 O22 U3 U1 106.2(2) 2_655 . ?
 O22 U3 U4 162.9(2) . . ?
 O22 U3 U4 73.2(2) . 2_655 ?
 O22 U3 U4 162.9(2) 2_655 2_655 ?
 O22 U3 U4 73.2(2) 2_655 . ?
 O22 U3 O22 123.5(4) 2_655 . ?
 O22 U3 O35 61.8(2) 2_655 . ?
 O22 U3 O35 61.8(2) . . ?
 O35 U3 U1 134.804(7) . 2_655 ?
 O35 U3 U1 134.803(7) . . ?
 O35 U3 U4 134.767(7) . . ?
 O35 U3 U4 134.767(7) . 2_655 ?
 O1A U3 U1 93.8(2) 2_655 . ?
 O1A U3 U1 93.8(2) . 2_655 ?
 O1A U3 U1 36.8(2) . . ?
 O1A U3 U1 36.8(2) 2_655 2_655 ?
 O1A U3 U4 38.3(2) . . ?
 O1A U3 U4 92.9(2) 2_655 . ?
 O1A U3 U4 92.9(2) . 2_655 ?
 O1A U3 U4 38.3(2) 2_655 2_655 ?
 O1A U3 O22 71.1(3) . 2_655 ?
 O1A U3 O22 71.1(3) 2_655 . ?
 O1A U3 O22 144.8(3) . . ?
 O1A U3 O22 144.8(3) 2_655 2_655 ?
 O1A U3 O35 121.4(2) . . ?
 O1A U3 O35 121.4(2) 2_655 . ?
 O1A U3 O1A 117.1(4) . 2_655 ?
 O2B U3 U1 31.9(2) 2_655 . ?
 O2B U3 U1 82.2(2) . . ?
 O2B U3 U1 31.9(2) . 2_655 ?
 O2B U3 U1 82.2(2) 2_655 2_655 ?
 O2B U3 U4 30.9(2) 2_655 2_655 ?
 O2B U3 U4 82.7(2) . 2_655 ?
 O2B U3 U4 30.9(2) . . ?
 O2B U3 U4 82.7(2) 2_655 . ?
 O2B U3 O16 144.2(3) 2_655 2_655 ?
 O2B U3 O16 144.2(3) . . ?
 O2B U3 O16 81.7(3) . 2_655 ?
 O2B U3 O16 81.7(3) 2_655 . ?
 O2B U3 O22 85.6(3) 2_655 . ?
 O2B U3 O22 137.6(3) . . ?
 O2B U3 O22 137.6(3) 2_655 2_655 ?
 O2B U3 O22 85.6(3) . 2_655 ?
 O2B U3 O35 134.4(2) . . ?
 O2B U3 O35 134.4(2) 2_655 . ?
 O2B U3 O1A 68.8(3) 2_655 2_655 ?
 O2B U3 O1A 68.4(3) . 2_655 ?
 O2B U3 O1A 68.8(3) . . ?
 O2B U3 O1A 68.4(3) 2_655 . ?
 O2B U3 O2B 91.3(4) 2_655 . ?
 U1 U4 U1 90.486(10) 2_655 . ?
 U2 U4 U1 59.562(7) . . ?
 U2 U4 U1 59.961(7) . 2_655 ?
 U3 U4 U1 60.126(7) . . ?
 U3 U4 U1 60.532(7) . 2_655 ?
 U3 U4 U2 89.663(10) . . ?
 O6 U4 U1 162.37(19) 2_655 . ?
 O6 U4 U1 72.69(18) 2_655 2_655 ?
 O6 U4 U2 113.5(2) 2_655 . ?
 O6 U4 U3 105.5(2) 2_655 . ?
 O6 U4 O1A 137.0(3) 2_655 . ?
 O6 U4 O37 61.5(3) 2_655 2_655 ?
 O7 U4 U1 71.96(19) . . ?
 O7 U4 U1 162.28(19) . 2_655 ?
 O7 U4 U2 107.06(18) . . ?
 O7 U4 U3 110.31(18) . . ?
 O7 U4 O6 125.0(3) . 2_655 ?
 O7 U4 O19 72.0(3) . 2_655 ?
 O7 U4 O1A 73.4(3) . . ?
 O7 U4 O2A 138.8(3) . . ?
 O7 U4 O37 63.6(3) . 2_655 ?
 O19 U4 U1 103.0(2) 2_655 . ?
 O19 U4 U1 115.78(19) 2_655 2_655 ?
 O19 U4 U2 160.6(2) 2_655 . ?
 O19 U4 U3 73.1(2) 2_655 . ?
 O19 U4 O6 80.5(3) 2_655 2_655 ?
 O19 U4 O1A 68.7(3) 2_655 . ?
 O19 U4 O37 61.4(3) 2_655 2_655 ?
 O24 U4 U1 107.8(2) . . ?
 O24 U4 U1 109.6(2) . 2_655 ?
 O24 U4 U2 72.8(2) . . ?
 O24 U4 U3 162.4(2) . . ?
 O24 U4 O6 83.5(3) . 2_655 ?
 O24 U4 O7 74.6(3) . . ?
 O24 U4 O19 124.0(3) . 2_655 ?
 O24 U4 O1A 138.6(3) . . ?
 O24 U4 O2A 73.4(3) . . ?
 O24 U4 O37 63.8(3) . 2_655 ?
 O1B U4 U1 31.8(2) . . ?
 O1B U4 U2 31.1(2) . . ?
 O1B U4 U3 82.4(2) . . ?
 O1B U4 O7 81.3(3) . . ?
 O1B U4 O24 81.7(3) . . ?
 O1B U4 O37 135.4(3) . 2_655 ?
 O1A U4 U1 36.5(2) . . ?
 O1A U4 U1 94.1(2) . 2_655 ?
 O1A U4 U2 92.3(2) . . ?
 O1A U4 U3 37.9(2) . . ?
 O1A U4 O37 121.2(3) . 2_655 ?
 O2B U4 U1 81.7(2) . . ?
 O2B U4 U1 32.5(2) . 2_655 ?
 O2B U4 U2 82.0(2) . . ?
 O2B U4 U3 31.0(2) . . ?
 O2B U4 O6 81.2(3) . 2_655 ?
 O2B U4 O7 141.2(3) . . ?
 O2B U4 O19 87.3(3) . 2_655 ?
 O2B U4 O24 142.1(3) . . ?
 O2B U4 O1A 68.6(3) . . ?
 O2B U4 O2A 69.3(3) . . ?
 O2B U4 O37 133.4(3) . 2_655 ?
 O2A U4 U1 37.2(2) . 2_655 ?
 O2A U4 U1 93.9(2) . . ?
 O2A U4 U2 38.0(2) . . ?
 O2A U4 U3 93.8(2) . . ?
 O2A U4 O6 76.0(3) . 2_655 ?
 O2A U4 O19 148.9(3) . 2_655 ?
 O2A U4 O1A 117.5(3) . . ?
 O2A U4 O37 121.2(3) . 2_655 ?
 O37 U4 U1 134.0(3) 2_655 2_655 ?
 O37 U4 U1 135.5(3) 2_655 . ?
 O37 U4 U2 136.5(2) 2_655 . ?
 O37 U4 U3 133.8(2) 2_655 . ?
 O3 Ho1 O11 109.5(3) . 4 ?
 O3 Ho1 O13 73.6(3) . . ?
 O3 Ho1 O28 72.3(3) . . ?
 O3 Ho1 O29 139.1(3) . . ?
 O5 Ho1 O3 147.2(3) . . ?
 O5 Ho1 O11 82.3(3) . 4 ?
 O5 Ho1 O13 81.1(3) . . ?
 O5 Ho1 O28 140.1(3) . . ?
 O5 Ho1 O29 72.9(3) . . ?
 O5 Ho1 O33 75.6(3) . . ?
 O11 Ho1 O13 73.8(3) 4 . ?
 O11 Ho1 O28 74.3(3) 4 . ?
 O11 Ho1 O29 74.9(3) 4 . ?
 O13 Ho1 O28 121.0(3) . . ?
 O15 Ho1 O3 80.2(3) . . ?
 O15 Ho1 O5 109.7(3) . . ?
 O15 Ho1 O11 142.1(3) . 4 ?
 O15 Ho1 O13 142.1(3) . . ?
 O15 Ho1 O28 74.3(4) . . ?
 O15 Ho1 O29 74.9(3) . . ?
 O15 Ho1 O33 76.5(4) . . ?
 O29 Ho1 O13 141.4(3) . . ?
 O29 Ho1 O28 70.1(3) . . ?
 O33 Ho1 O3 76.7(3) . . ?
 O33 Ho1 O11 140.9(3) . 4 ?
 O33 Ho1 O13 71.2(3) . . ?
 O33 Ho1 O28 140.3(4) . . ?
 O33 Ho1 O29 126.4(3) . . ?
 O12 Ho2 O17 128.4(4) . . ?
 O12 Ho2 O23 137.4(4) . . ?
 O12 Ho2 O26 142.4(4) . . ?
 O12 Ho2 O30 72.8(3) . . ?
 O12 Ho2 O34 73.7(4) . . ?
 O21 Ho2 O12 74.5(3) . . ?
 O21 Ho2 O17 75.2(4) . . ?
 O21 Ho2 O23 77.0(4) . . ?
 O21 Ho2 O25 95.3(4) . . ?
 O21 Ho2 O26 142.2(4) . . ?
 O21 Ho2 O30 146.7(3) . . ?
 O21 Ho2 O34 97.3(5) . . ?
 O23 Ho2 O17 71.7(3) . . ?
 O25 Ho2 O12 79.9(4) . . ?
 O25 Ho2 O17 143.6(3) . . ?
 O25 Ho2 O23 71.9(3) . . ?
 O25 Ho2 O26 99.1(4) . . ?
 O25 Ho2 O30 73.3(4) . . ?
 O25 Ho2 O34 146.3(4) . . ?
 O26 Ho2 O17 72.5(4) . . ?
 O26 Ho2 O23 74.7(4) . . ?
 O26 Ho2 O30 71.1(3) . . ?
 O26 Ho2 O34 89.7(5) . . ?
 O30 Ho2 O17 131.6(3) . . ?
 O30 Ho2 O23 125.7(4) . . ?
 O34 Ho2 O17 70.0(4) . . ?
 O34 Ho2 O23 141.5(4) . . ?
 O34 Ho2 O30 79.0(5) . . ?
 O7 S2 O10 108.5(5) . . ?
 O11 S2 O7 109.8(5) . . ?
 O11 S2 O10 108.6(5) . . ?
 O33 S2 O7 109.3(5) . . ?
 O33 S2 O10 109.5(5) . . ?
 O33 S2 O11 111.0(5) . . ?
 O5 S3 O2 109.5(5) . . ?
 O5 S3 O27 108.4(5) . . ?
 O18 S3 O2 109.2(5) . . ?
 O18 S3 O5 110.2(5) . . ?
 O18 S3 O27 110.0(5) . . ?
 O27 S3 O2 109.6(5) . . ?
 O9 S5 O14 108.5(5) . . ?
 O9 S5 O16 109.2(5) . . ?
 O14 S5 O16 109.8(5) . . ?
 O25 S5 O9 110.2(5) . . ?
 O25 S5 O14 109.2(5) . . ?
 O25 S5 O16 110.0(5) . . ?
 O6 S4 O4 108.4(5) . . ?
 O8 S4 O4 109.0(5) . . ?
 O8 S4 O6 110.2(5) . . ?
 O8 S4 O12 109.7(6) . . ?
 O12 S4 O4 109.2(5) . . ?
 O12 S4 O6 110.3(5) . . ?
 O15 S1 O20 110.1(5) . . ?
 O15 S1 O24 109.3(5) . . ?
 O15 S1 O31 108.5(6) . . ?
 O24 S1 O20 110.0(5) . . ?
 O31 S1 O20 110.8(6) . . ?
 O31 S1 O24 108.1(5) . . ?
 O19 S6 O22 108.9(5) . . ?
 O21 S6 O19 107.0(5) . . ?
 O21 S6 O22 108.3(6) . . ?
 O32 S6 O19 110.5(6) . . ?
 O32 S6 O21 112.5(6) . . ?
 O32 S6 O22 109.5(6) . . ?
 S3 O2 U2 142.4(5) . . ?
 S4 O4 U1 140.9(5) . . ?
 S3 O5 Ho1 143.6(5) . . ?
 S4 O6 U4 139.4(5) . 2_655 ?
 S2 O7 U4 134.7(5) . . ?
 S2 O10 U1 135.2(5) . . ?
 S2 O11 Ho1 127.9(5) . 4_545 ?
 S4 O12 Ho2 163.5(6) . . ?
 S5 O14 U1 144.8(5) . . ?
 S1 O15 Ho1 150.8(6) . . ?
 S5 O16 U3 140.0(4) . . ?
 S6 O19 U4 132.5(5) . 2_655 ?
 S1 O20 U2 139.0(5) . . ?
 S6 O21 Ho2 159.0(6) . . ?
 S6 O22 U3 134.0(5) . . ?
 S1 O24 U4 143.5(5) . . ?
 S5 O25 Ho2 146.1(6) . . ?
 S3 O27 U1 141.4(5) . . ?
 S2 O33 Ho1 167.7(6) . . ?
 O36 O35 U3 180.0 . . ?
 U2 O1B U1 116.4(4) . . ?
 U2 O1B U4 117.0(4) . . ?
 U4 O1B U1 116.6(4) . . ?
 O35 O36 U2 180.0 . 1_545 ?
 U1 O1A U3 106.2(4) . . ?
 U1 O1A U4 106.4(3) . . ?
 U3 O1A U4 103.8(4) . . ?
 U3 O2B U1 117.2(4) . 2_655 ?
 U4 O2B U1 116.0(4) . 2_655 ?
 U4 O2B U3 118.1(4) . . ?
 U1 O2A U2 104.6(3) 2_655 . ?
 U1 O2A U4 105.4(3) 2_655 . ?
 U4 O2A U2 104.4(3) . . ?

loop_
  _geom_torsion_atom_site_label_1
  _geom_torsion_atom_site_label_2
  _geom_torsion_atom_site_label_3
  _geom_torsion_atom_site_label_4
  _geom_torsion
  _geom_torsion_site_symmetry_1
  _geom_torsion_site_symmetry_2
  _geom_torsion_site_symmetry_3
  _geom_torsion_site_symmetry_4
  _geom_torsion_publ_flag
 O2 S3 O5 Ho1 19.4(10) . . . . ?
 O2 S3 O27 U1 -13.9(10) . . . . ?
 O4 S4 O6 U4 -24.7(9) . . . 2_655 ?
 O4 S4 O12 Ho2 96(2) . . . . ?
 O5 S3 O2 U2 -119.1(7) . . . . ?
 O5 S3 O27 U1 105.6(8) . . . . ?
 O6 S4 O4 U1 35.5(10) . . . . ?
 O6 S4 O12 Ho2 -23(2) . . . . ?
 O7 S2 O10 U1 50.6(7) . . . . ?
 O7 S2 O11 Ho1 103.0(6) . . . 4_545 ?
 O7 S2 O33 Ho1 126(3) . . . . ?
 O8 S4 O4 U1 155.5(8) . . . . ?
 O8 S4 O6 U4 -143.9(8) . . . 2_655 ?
 O8 S4 O12 Ho2 -145(2) . . . . ?
 O9 S5 O14 U1 -132.4(9) . . . . ?
 O9 S5 O16 U3 122.3(7) . . . . ?
 O9 S5 O25 Ho2 151.8(10) . . . . ?
 O10 S2 O7 U4 -51.6(7) . . . . ?
 O10 S2 O11 Ho1 -15.5(7) . . . 4_545 ?
 O10 S2 O33 Ho1 -115(3) . . . . ?
 O11 S2 O7 U4 -170.2(6) . . . . ?
 O11 S2 O10 U1 169.9(6) . . . . ?
 O11 S2 O33 Ho1 5(3) . . . . ?
 O12 S4 O4 U1 -84.7(9) . . . . ?
 O12 S4 O6 U4 94.8(8) . . . 2_655 ?
 O14 S5 O16 U3 3.4(9) . . . . ?
 O14 S5 O25 Ho2 -89.2(11) . . . . ?
 O15 S1 O20 U2 102.2(9) . . . . ?
 O15 S1 O24 U4 -111.1(9) . . . . ?
 O16 S5 O14 U1 -13.1(10) . . . . ?
 O16 S5 O25 Ho2 31.4(12) . . . . ?
 O18 S3 O2 U2 120.2(7) . . . . ?
 O18 S3 O5 Ho1 139.5(8) . . . . ?
 O18 S3 O27 U1 -134.0(8) . . . . ?
 O19 S6 O21 Ho2 -174.5(17) . . . . ?
 O19 S6 O22 U3 -46.2(9) . . . . ?
 O20 S1 O15 Ho1 -42.1(14) . . . . ?
 O20 S1 O24 U4 9.9(10) . . . . ?
 O21 S6 O19 U4 -62.7(8) . . . 2_655 ?
 O21 S6 O22 U3 69.8(8) . . . . ?
 O22 S6 O19 U4 54.1(8) . . . 2_655 ?
 O22 S6 O21 Ho2 68.3(19) . . . . ?
 O24 S1 O15 Ho1 78.8(13) . . . . ?
 O24 S1 O20 U2 -18.3(10) . . . . ?
 O25 S5 O14 U1 107.5(9) . . . . ?
 O25 S5 O16 U3 -116.7(8) . . . . ?
 O27 S3 O2 U2 -0.4(9) . . . . ?
 O27 S3 O5 Ho1 -100.1(9) . . . . ?
 O31 S1 O15 Ho1 -163.5(11) . . . . ?
 O31 S1 O20 U2 -137.8(8) . . . . ?
 O31 S1 O24 U4 131.0(9) . . . . ?
 O32 S6 O19 U4 174.4(6) . . . 2_655 ?
 O32 S6 O21 Ho2 -53(2) . . . . ?
 O32 S6 O22 U3 -167.2(7) . . . . ?
 O33 S2 O7 U4 67.8(7) . . . . ?
 O33 S2 O10 U1 -68.7(8) . . . . ?
 O33 S2 O11 Ho1 -136.1(6) . . . 4_545 ?

_smtbx_masks_special_details       ?
loop_
  _smtbx_masks_void_nr
  _smtbx_masks_void_average_x
  _smtbx_masks_void_average_y
  _smtbx_masks_void_average_z
  _smtbx_masks_void_volume
  _smtbx_masks_void_count_electrons
  _smtbx_masks_void_content
 1 0.250 -0.312 0.500 263.7 123.5 ?
 2 0.250 0.222 0.000 263.7 123.5 ?
 3 0.750 0.722 0.000 263.7 123.5 ?
 4 0.750 0.188 0.500 263.7 123.5 ?

_smtbx_masks_void_probe_radius     1.2
_smtbx_masks_void_truncation_radius  1.2
_shelx_res_file
;
TITL ic-235a-dy_a.res in C2/c
    ho-u6.res
    created by SHELXL-2018/3 at 11:45:19 on 13-May-2021
REM Old TITL IC-235A-Dy in C2/c #15
REM SHELXT solution in C2/c: R1 0.078, Rweak 0.009, Alpha 0.050
REM <I/s> 1.448 for 356 systematic absences, Orientation as input
REM Formula found by SHELXT: O85 S12 U6 Dy4
CELL 1.54184 24.951508 11.789967 26.327991 90 113.435 90
ZERR 4 0.000219 0.000083 0.000244 0 0.0011 0
LATT 7
SYMM -X,+Y,0.5-Z
SFAC Ho O S U
UNIT 16 316 48 24

L.S. 99
PLAN  43
SIZE 0.062 0.042 0.025
TEMP 20(2)
CONF
BIND O1 U1
CONN 24 U3
CONN 24 U2
CONN 24 U4
CONN 24 U1
BIND O35 U3
list 4
MORE -1
fmap 2
acta
ABIN
OMIT -27 5 9
OMIT -25 3 6
OMIT 23 7 2
OMIT -19 9 13
OMIT 26 4 1
OMIT -28 4 3
OMIT 27 1 2
REM <olex2.extras>
REM <HklSrc "%./ho-u6.hkl">
REM </olex2.extras>

WGHT    0.052700  469.457458
FVAR       0.04468
U1    4    0.445497    0.561635    0.322481    11.00000    0.00443    0.00381 =
         0.01026    0.00084    0.00410    0.00055
U2    4    0.500000    0.789689    0.250000    10.50000    0.00921    0.00510 =
         0.01646    0.00000    0.00941    0.00000
U3    4    0.500000    0.330099    0.250000    10.50000    0.00627    0.00445 =
         0.01215    0.00000    0.00507    0.00000
U4    4    0.394585    0.559376    0.162176    11.00000    0.00684    0.00406 =
         0.01485    0.00018    0.00710    0.00024
HO1   1    0.284023    0.931782    0.226371    11.00000    0.00379    0.00416 =
         0.00951   -0.00017    0.00273    0.00014
HO2   1    0.571652    0.199649    0.467700    11.00000    0.01006    0.00663 =
         0.00938    0.00026    0.00161    0.00189
S2    3    0.296312    0.613236    0.228460    11.00000    0.00371    0.00805 =
         0.01348   -0.00094    0.00450    0.00195
S3    3    0.420812    0.866269    0.337281    11.00000    0.00638    0.00688 =
         0.01209   -0.00018    0.00582    0.00180
S5    3    0.437723    0.257406    0.351029    11.00000    0.00579    0.00492 =
         0.01016    0.00261    0.00111   -0.00065
S4    3    0.565384    0.518813    0.457052    11.00000    0.00446    0.00869 =
         0.00927   -0.00239   -0.00105    0.00164
S1    3    0.358549    0.861676    0.136998    11.00000    0.01193    0.00641 =
         0.01434    0.00616    0.00616    0.00338
S6    3    0.635494    0.261612    0.368045    11.00000    0.01641    0.00935 =
         0.01553    0.00290    0.00825    0.00571
O1    2    0.387907    0.559007    0.394083    11.00000    0.01367    0.01878 =
         0.00885   -0.00112    0.00489   -0.00054
O2    2    0.449542    0.885792    0.298191    11.00000    0.01221
O3    2    0.197475    0.864136    0.156680    11.00000    0.01839    0.02746 =
         0.01663   -0.00383    0.00629   -0.01145
O4    2    0.506472    0.555276    0.418743    11.00000    0.01468    0.03011 =
         0.00460   -0.00142   -0.00189    0.00245
O5    2    0.359896    0.898324    0.311116    11.00000    0.00345    0.02304 =
         0.01961   -0.00331   -0.00221    0.00295
O6    2    0.606304    0.539952    0.430430    11.00000    0.00566    0.02469 =
         0.01520    0.00405   -0.00645    0.00108
O7    2    0.309258    0.567013    0.182842    11.00000    0.01207
O8    2    0.582593    0.583836    0.508146    11.00000    0.02593    0.02737 =
         0.02378   -0.00396    0.01116   -0.00743
O9    2    0.382315    0.196965    0.333851    11.00000    0.01376    0.02467 =
         0.02381   -0.00486    0.00879   -0.01212
O10   2    0.340180    0.570161    0.280979    11.00000    0.01410
O11   2    0.238457    0.575109    0.223222    11.00000    0.01870
O12   2    0.564092    0.398057    0.469010    11.00000    0.04197    0.00665 =
         0.03655   -0.00045    0.02481   -0.00232
O13   2    0.229108    0.840881    0.273315    11.00000    0.02778    0.01521 =
         0.02492   -0.00412    0.01661   -0.00333
O14   2    0.426111    0.380350    0.351011    11.00000    0.01993
O15   2    0.315763    0.904378    0.156671    11.00000    0.02499
O16   2    0.464979    0.232470    0.311488    11.00000    0.01626    0.00780 =
         0.02019    0.00379    0.01206    0.00298
O17   2    0.658224    0.085446    0.488085    11.00000    0.02311    0.04013 =
         0.01797   -0.00477   -0.00012    0.00046
O18   2    0.450072    0.933167    0.386727    11.00000    0.01738    0.02313 =
         0.01001   -0.00829    0.00324   -0.01108
O19   2    0.656128    0.378341    0.364293    11.00000    0.01822    0.01160 =
         0.02934    0.00675    0.01478    0.00540
O20   2    0.418798    0.887096    0.178158    11.00000    0.02027    0.01152 =
         0.03394   -0.00516    0.00380    0.00005
O21   2    0.611153    0.263978    0.410052    11.00000    0.04091    0.02434 =
         0.02882    0.00472    0.02780    0.00189
O22   2    0.587764    0.231381    0.313859    11.00000    0.02468    0.01893 =
         0.02324   -0.00268    0.00464   -0.00023
O23   2    0.549089    0.052635    0.399679    11.00000    0.01557    0.02072 =
         0.03714   -0.02051    0.00188   -0.00176
O24   2    0.350825    0.737508    0.128239    11.00000    0.01816
O25   2    0.476316    0.222918    0.406203    11.00000    0.01496    0.03426 =
         0.01509    0.00642   -0.00099    0.00556
O26   2    0.560660    0.034294    0.512538    11.00000    0.04430    0.02412 =
         0.05521    0.02288    0.03402    0.01779
O27   2    0.423993    0.745181    0.351601    11.00000    0.02044
O28   2    0.241578    1.086144    0.160849    11.00000    0.01522    0.03737 =
         0.03134    0.01869    0.00254    0.00130
O29   2    0.355016    1.075199    0.239244    11.00000    0.01963    0.02293 =
         0.02791   -0.00523    0.01338   -0.00865
O30   2    0.516645    0.244226    0.521375    11.00000    0.05529    0.02216 =
         0.02681   -0.00264    0.02681   -0.00300
O31   2    0.348046    0.914542    0.083911    11.00000    0.05304    0.02288 =
         0.03432    0.00312    0.02500   -0.01130
O32   2    0.682517    0.181624    0.380803    11.00000    0.02464    0.02320 =
         0.03696    0.00340    0.00755    0.01932
O33   2    0.299275    0.735602    0.227699    11.00000    0.02324    0.00915 =
         0.04672   -0.00536    0.01303    0.00205
O34   2    0.646588    0.261291    0.551225    11.00000    0.05599    0.02767 =
         0.04736   -0.01813   -0.02376    0.02197
O35   2    0.500000    0.096579    0.250000    10.25000    0.03391    0.01099 =
         0.05810    0.00000    0.03323    0.00000
PART 2
O1B   2    0.432919    0.658961    0.243081    11.00000    0.02315
PART 0
O36   2    0.500000    0.028604    0.250000    10.25000    0.01512
PART 1
O1A   2    0.414223    0.437562    0.242911    11.00000    0.02409
O2B   2    0.477968    0.462937    0.183949    11.00000    0.01904
O2A   2    0.472306    0.684009    0.163304    11.00000    0.02182

PART 0
O37   2    0.709988    0.553678    0.425710    11.00000    0.04065
HKLF 4




REM  ic-235a-dy_a.res in C2/c
REM wR2 = 0.1243, GooF = S = 1.137, Restrained GooF = 1.137 for all data
REM R1 = 0.0402 for 6825 Fo > 4sig(Fo) and 0.0450 for all 7110 data
REM 394 parameters refined using 0 restraints

END

WGHT      0.0526    469.8762

REM Highest difference peak  3.506,  deepest hole -3.606,  1-sigma level  0.484
Q1    1   0.4788  0.6462  0.1901  11.00000  0.05    3.51
Q2    1   0.4715  0.4296  0.1623  11.00000  0.05    3.23
Q3    1   0.4413  0.4759  0.2449  11.00000  0.05    3.02
Q4    1   0.4082  0.6973  0.2372  11.00000  0.05    2.45
Q5    1   0.3282  0.8658  0.1738  11.00000  0.05    1.96
Q6    1   0.4702  0.4810  0.3572  11.00000  0.05    1.91
Q7    1   0.4419  0.4611  0.3165  11.00000  0.05    1.83
Q8    1   0.4192  0.4740  0.2018  11.00000  0.05    1.78
Q9    1   0.4427  0.6627  0.3169  11.00000  0.05    1.73
Q10   1   0.4217  0.7583  0.3030  11.00000  0.05    1.68
Q11   1   0.5503 -0.0598  0.5245  11.00000  0.05    1.65
Q12   1   0.2793  0.6656  0.2666  11.00000  0.05    1.64
Q13   1   0.4063  0.6424  0.2823  11.00000  0.05    1.63
Q14   1   0.4715  0.6605  0.3546  11.00000  0.05    1.63
Q15   1   0.3198  0.6563  0.0946  11.00000  0.05    1.60
Q16   1   0.3704  0.6789  0.2095  11.00000  0.05    1.60
Q17   1   0.2795  0.8381  0.2635  11.00000  0.05    1.59
Q18   1   0.4668  0.4176  0.2122  11.00000  0.05    1.59
Q19   1   0.1804  0.5642  0.2141  11.00000  0.05    1.58
Q20   1   0.4427  0.1607  0.4144  11.00000  0.05    1.57
Q21   1   0.3584  0.6488  0.1265  11.00000  0.05    1.55
Q22   1   0.3407  0.5569  0.1503  11.00000  0.05    1.55
Q23   1   0.3967  1.0284  0.2822  11.00000  0.05    1.55
Q24   1   0.4414  0.7740  0.2260  11.00000  0.05    1.55
Q25   1   0.4594  0.7461  0.1337  11.00000  0.05    1.54
Q26   1   0.6469 -0.0516  0.4764  11.00000  0.05    1.54
Q27   1   0.5297  0.0386  0.5086  11.00000  0.05    1.53
Q28   1   0.3933  0.4577  0.1612  11.00000  0.05    1.50
Q29   1   0.4417  0.3733  0.2307  11.00000  0.05    1.47
Q30   1   0.6101  0.6615  0.5414  11.00000  0.05    1.47
Q31   1   0.3899  0.5656  0.3072  11.00000  0.05    1.47
Q32   1   0.3611  0.5592  0.2086  11.00000  0.05    1.47
Q33   1   0.4028  0.7489  0.3882  11.00000  0.05    1.46
Q34   1   0.5920  0.1354  0.5158  11.00000  0.05    1.46
Q35   1   0.3712  0.8635  0.0469  11.00000  0.05    1.45
Q36   1   0.3659  0.9394  0.3499  11.00000  0.05    1.44
Q37   1   0.2294  0.8648  0.3084  11.00000  0.05    1.43
Q38   1   0.4171  0.8777  0.2098  11.00000  0.05    1.43
Q39   1   0.3000  0.7556  0.2767  11.00000  0.05    1.43
Q40   1   0.2525  0.8606  0.1847  11.00000  0.05    1.43
Q41   1   0.4401  0.3500  0.4171  11.00000  0.05    1.43
Q42   1   0.3210  0.5665  0.3239  11.00000  0.05    1.42
Q43   1   0.2943  0.7391  0.0750  11.00000  0.05    1.41
;
_shelx_res_checksum                8158
_shelx_hkl_file
;
   0   0  -2 4339.13  263.06
   0   0  -2 4037.69  263.03
   0   0  -3    1.08    0.74
   0   0  -3    1.78    0.70
   0   0  -4  275.73   19.64
   0   0  -4  311.83   19.76
   0   0  -5    1.21    1.00
   0   0  -5    0.91    1.04
   0   0  -6 1007.19   63.92
   0   0  -6  966.63   63.86
   0   0  -7    0.88    1.32
   0   0  -7    3.03    1.39
   0   0  -8  155.12   12.39
   0   0  -8  161.81   12.56
   0   0  -9    2.30    1.51
   0   0  -9    1.79    1.71
   0   0 -10 2907.82  188.21
   0   0 -10 2983.79  188.47
   0   0 -11    0.78    0.83
   0   0 -11    0.78    1.44
   0   0 -12 3235.85  199.08
   0   0 -12 3114.26  198.82
   0   0 -12 3028.41  195.08
   0   0 -12 3199.06  198.65
   0   0 -13    3.75    1.91
   0   0 -13    3.93    1.02
   0   0 -13    0.99    2.02
   0   0 -14 2264.88  145.33
   0   0 -14 2422.70  150.37
   0   0 -15    1.21    1.04
   0   0 -15    1.24    2.05
   0   0 -15    4.55    1.24
   0   0 -16   37.29    4.00
   0   0 -16   44.02    7.71
   0   0 -16   49.85    4.60
   0   0 -16   49.36    4.51
   0   0 -17   -0.73    1.25
   0   0 -17    1.52    2.82
   0   0 -17    0.60    0.96
   0   0 -17    3.27    1.04
   0   0  18   26.34    6.21
   0   0 -18   22.15    3.06
   0   0 -18   26.89    6.02
   0   0 -18   16.32    2.55
   0   0 -19    1.84    3.03
   0   0  19   -1.79    2.56
   0   0 -19    1.72    1.46
   0   0 -19   -0.35    0.92
   0   0  20  143.46   17.45
   0   0 -20  162.57   11.89
   0   0 -20  140.92   17.60
   0   0 -20  158.12   12.38
   0   0  21   -4.04    4.42
   0   0 -21    0.39    1.11
   0   0 -21    1.04    1.71
   0   0 -21   -2.12    3.03
   0   0 -22   12.45    2.74
   0   0 -22   15.05    2.49
   0   0  22   10.44    5.53
   0   0 -22   13.28    5.55
   0   0  23    2.11    5.23
   0   0 -23    1.11    1.84
   0   0 -23    3.14    1.56
   0   0 -24  340.45   24.09
   0   0 -24  333.85   23.11
   0   0 -25   -1.08    2.52
   0   0 -26   95.16    8.52
   0   0 -27   -0.91    2.23
   0   0 -28  183.98   13.59
   0   0 -29    2.47    1.23
   0   0 -30   10.15    1.60
   0   2   0  252.65   17.15
   0   2   1    5.04    1.39
   0   2  -1    4.34    0.68
   0   2   1    6.76    0.65
   0   2  -1    3.91    1.09
   0   2  -2  364.52   23.20
   0  -2  -2  355.72   23.33
   0  -2  -3  611.42   40.26
   0   2  -3  634.68   40.07
   0  -2  -4  526.99   33.24
   0   2  -4  487.48   32.76
   0   2  -5  801.23   50.79
   0  -2  -5  764.68   51.17
   0  -2  -6 1057.02   66.66
   0   2  -6  999.17   66.00
   0   2  -7 2508.14  157.83
   0  -2  -7 2446.25  158.40
   0   2  -8 1706.78  108.35
   0  -2  -8 1601.45  109.00
   0  -2  -8 1756.98  109.48
   0   2  -9  649.71   42.93
   0  -2  -9  661.92   43.97
   0   2  -9  627.55   43.68
   0  -2  -9  661.76   43.31
   0  -2  -9  588.06   43.51
   0  -2 -10  381.14   25.93
   0  -2 -10  338.02   23.24
   0   2 -10  356.53   25.35
   0  -2 -10  360.87   26.41
   0   2 -10  353.35   23.02
   0  -2 -10  367.76   26.48
   0   2 -10  356.37   26.35
   0   2 -11    2.70    1.98
   0   2 -11    4.32    1.02
   0  -2 -11    5.35    2.46
   0  -2 -11    1.52    1.68
   0  -2 -11    6.12    1.35
   0  -2 -11    5.36    2.23
   0   2 -11    3.41    1.89
   0  -2 -12  435.58   30.50
   0   2 -12  442.22   30.61
   0   2 -12  408.11   25.95
   0  -2 -12  361.45   26.14
   0  -2 -12  398.73   29.30
   0   2 -13  466.77   32.35
   0  -2 -13  465.90   31.39
   0  -2 -13  373.04   27.32
   0  -2 -13  457.30   31.98
   0   2 -13  417.53   27.13
   0  -2 -14    9.78    3.52
   0  -2 -14    8.56    3.21
   0   2 -14    2.53    2.12
   0   2 -15    9.84    3.50
   0   2 -15    2.45    1.12
   0  -2 -15    5.50    1.30
   0   2 -15    2.81    1.08
   0  -2 -15   12.12    3.71
   0  -2 -15    5.95    2.62
   0   2 -15   14.19    2.00
   0   2 -16  214.08   16.42
   0  -2 -16  263.15   16.49
   0   2 -16  210.21   21.39
   0  -2 -16  258.62   22.03
   0  -2 -16  263.94   21.55
   0   2 -16  223.29   16.18
   0   2 -16  224.70   16.36
   0  -2  17  609.65   43.28
   0  -2 -17  548.83   37.36
   0   2 -17  567.56   37.37
   0   2 -17  601.53   37.88
   0  -2 -17  514.29   42.48
   0   2  17  446.05   42.19
   0  -2 -17  585.68   43.95
   0   2 -17  589.57   37.66
   0   2 -17  565.69   44.34
   0  -2  18 1863.43  129.26
   0  -2 -18 2074.17  130.24
   0   2 -18 1993.09  123.41
   0   2  18 1752.89  129.67
   0   2 -18 1920.27  131.07
   0  -2 -18 1868.61  122.47
   0   2 -18 1882.95  122.87
   0  -2 -18 2172.92  131.53
   0  -2 -18 1976.93  123.02
   0   2 -18 1935.74  123.15
   0  -2 -19  408.18   35.85
   0   2 -19  451.13   30.22
   0   2 -19  489.73   30.83
   0  -2 -19  420.20   30.00
   0  -2 -19  464.22   30.10
   0  -2 -19  396.63   29.24
   0  -2  19  508.80   37.15
   0   2 -19  443.61   37.88
   0   2 -19  464.25   30.03
   0   2 -19  486.49   30.66
   0   2  19  356.33   35.81
   0  -2 -20  592.49   39.69
   0  -2  20  631.94   47.43
   0  -2 -20  653.82   48.37
   0  -2 -20  640.85   40.80
   0   2 -20  599.22   40.42
   0   2 -20  569.88   48.63
   0   2 -20  585.43   40.63
   0   2 -20  658.85   41.34
   0   2  20  544.83   47.52
   0   2  21  282.19   28.85
   0   2 -21  321.05   23.15
   0  -2 -21  308.42   22.59
   0  -2 -21  298.59   28.85
   0   2 -21  341.63   22.55
   0   2 -21  327.27   22.73
   0  -2  21  321.15   29.05
   0   2 -21  305.31   30.54
   0   2  22  183.84   22.87
   0  -2 -22  238.93   17.74
   0   2 -22  254.62   18.32
   0  -2  22  221.83   23.36
   0   2 -22  252.03   17.55
   0  -2  23    7.44    4.37
   0   2  23    4.20    4.27
   0   2 -23    7.34    1.89
   0   2 -23    8.32    2.23
   0  -2 -23    3.50    1.74
   0  -2 -24   23.59    3.67
   0   2 -24   35.16    4.40
   0   2 -24   32.17    3.86
   0   2 -25   18.88    2.77
   0  -2 -25   13.60    2.83
   0   2 -25   22.40    3.61
   0   2 -26   50.04    5.77
   0   2 -26   54.08    5.13
   0  -2 -26   57.04    5.46
   0  -2 -27    0.76    1.58
   0   2 -27    4.97    1.95
   0  -2 -28   90.54    7.13
   0   2 -28   83.99    7.30
   0  -2 -29   28.92    3.23
   0   2 -29   45.69    3.95
   0   4   0    5.12    1.96
   0   4   1 2890.32  184.11
   0   4  -1 2891.72  184.11
   0   4  -2  446.81   28.99
   0   4   2  386.37   28.73
   0  -4   3  263.82   16.72
   0   4   3  263.30   19.16
   0   4   3  249.06   16.75
   0  -4   4    1.86    0.71
   0  -4  -4    2.33    1.03
   0   4   4    1.10    0.76
   0   4  -4    2.62    1.16
   0   4  -5  916.60   60.06
   0  -4   5 1029.56   59.38
   0  -4  -5  891.82   59.53
   0   4   5  843.42   59.37
   0   4  -6    7.24    1.99
   0   4   6    6.68    1.83
   0  -4  -6    4.48    1.55
   0  -4  -7  140.51   11.43
   0   4  -7  150.47   12.21
   0  -4  -8   35.54    4.44
   0   4  -8   26.84    4.52
   0   4  -9   12.56    3.46
   0  -4  -9   18.77    3.48
   0   4 -10   12.42    3.73
   0  -4 -10   15.44    3.28
   0   4 -11 3604.40  237.25
   0  -4 -11 3757.62  236.03
   0  -4  12   54.36    6.48
   0  -4 -12   36.09    5.66
   0   4 -12   35.12    6.35
   0   4  12   36.13    6.13
   0  -4 -13 1989.73  133.15
   0  -4  13 2284.65  133.80
   0   4  13 1946.59  133.67
   0   4 -13 2049.62  135.19
   0  -4 -13 1999.38  129.70
   0  -4 -14   60.25    7.89
   0   4 -14   45.43    4.65
   0  -4 -14   38.90    4.11
   0  -4 -14   50.72    4.90
   0   4 -14   64.31    9.21
   0  -4  14   47.49    7.28
   0   4  14   51.39    7.74
   0   4 -15  796.86   50.86
   0   4 -15  770.68   57.22
   0   4 -15  790.31   50.61
   0  -4 -15  793.55   50.96
   0   4 -15  770.73   50.94
   0  -4  15  814.61   55.36
   0  -4 -15  736.71   50.33
   0  -4 -15  729.46   54.88
   0  -4 -15  782.23   50.34
   0   4  15  787.25   55.96
   0   4 -16    2.69    1.40
   0  -4 -16    3.67    1.44
   0   4  16    5.89    3.45
   0  -4 -16   -1.36    2.52
   0   4 -16    3.88    1.48
   0   4 -16    2.94    1.50
   0  -4 -16    5.76    1.44
   0  -4  16    1.28    2.13
   0   4 -16    5.40    3.65
   0  -4 -17   48.65    8.49
   0   4 -17   59.90    5.47
   0   4 -17   53.16    5.61
   0  -4 -17   58.37    5.24
   0   4 -17   55.12    5.30
   0  -4  17   51.12    8.28
   0   4  17   55.14    9.08
   0  -4 -18   58.35    9.60
   0   4 -18   79.98    6.84
   0   4 -18   95.52    7.59
   0   4  18   58.20    9.82
   0   4 -18   76.51    6.86
   0  -4  18   73.41   10.16
   0   4 -18   85.67   12.81
   0  -4 -18   59.59    6.22
   0   4 -19   21.83    3.55
   0   4 -19   22.94    3.28
   0  -4  19   23.01    5.83
   0   4 -19   23.75    3.41
   0  -4 -19   22.59    3.16
   0   4 -19   19.92    7.21
   0  -4 -19   15.01    5.15
   0   4  19   15.57    4.93
   0   4 -20   18.72    3.27
   0  -4 -20   14.35    2.40
   0  -4  20   12.65    4.64
   0   4 -20   14.11    2.79
   0  -4 -20   19.19    2.84
   0   4 -20   21.54    3.17
   0   4 -21  309.70   21.07
   0  -4 -21  269.21   19.99
   0   4 -21  289.36   20.32
   0  -4 -21  277.03   19.62
   0   4 -21  284.43   20.44
   0  -4  21  278.82   25.30
   0   4  21  284.22   26.28
   0   4 -22   -0.58    1.97
   0  -4 -22    2.86    1.24
   0   4 -22    1.49    1.54
   0  -4 -22    2.17    1.52
   0   4 -22    1.40    1.45
   0   4 -23  244.52   18.99
   0   4 -23  276.29   19.09
   0  -4 -23  263.11   17.99
   0  -4 -23  249.58   18.67
   0   4 -23  297.10   19.85
   0  -4 -24    8.27    2.10
   0   4 -24    2.16    1.58
   0   4 -24   -0.52    2.45
   0   4  24    8.91    1.86
   0   4 -25  997.80   62.50
   0  -4 -25  842.80   61.92
   0   4 -25  987.50   62.84
   0   4  25 1039.78   62.12
   0  -4 -26    0.60    1.24
   0   4 -26   -1.07    1.32
   0   4 -26   -3.12    1.68
   0   4 -27  234.56   15.99
   0  -4 -27  223.86   15.57
   0  -4 -28   10.71    1.39
   0   4 -28    8.53    1.53
   0   6   0 3534.67  209.78
   0   6   0 3286.42  212.95
   0   6   0 3159.20  209.42
   0   6  -1 1132.85   66.96
   0   6   1 1018.56   69.85
   0   6  -1  986.59   69.86
   0   6  -1 1003.59   66.49
   0   6   1 1028.31   66.53
   0   6  -2  552.30   35.31
   0   6  -2  530.70   34.97
   0   6   2  526.34   34.94
   0   6   2  552.81   38.46
   0   6  -3 1301.82   80.24
   0   6  -3 1269.24   79.91
   0   6   3 1203.47   79.78
   0   6   3 1230.60   83.30
   0   6   4  487.70   36.78
   0   6  -4  494.13   33.56
   0   6  -4  547.02   34.01
   0   6  -5 2076.39  129.68
   0   6   5 1933.87  133.16
   0   6  -6 1054.09   67.86
   0   6   6 1062.82   71.54
   0   6   7 3895.32  248.64
   0   6  -7 3825.19  244.66
   0   6   7 3915.55  244.51
   0   6  -8  390.90   26.05
   0   6  -8  382.89   25.93
   0   6   8  380.75   25.70
   0   6   8  372.29   29.21
   0   6   9   95.98   11.00
   0   6   9   95.48    8.01
   0   6  -9  114.05    8.03
   0   6 -10   68.67    5.69
   0   6  10   75.53    9.10
   0   6  10   68.85    5.89
   0   6 -10   62.51    5.63
   0   6  11   21.25    4.76
   0   6 -11   19.50    2.59
   0   6  11   21.94    2.91
   0  -6 -11   29.27    3.57
   0   6 -11   15.16    2.90
   0   6 -11   22.68    2.77
   0   6 -12  264.70   18.00
   0  -6 -12  246.75   18.44
   0   6  12  256.01   19.98
   0  -6 -13  397.88   26.42
   0   6 -13  363.69   25.64
   0   6 -14   19.65    3.00
   0  -6 -14   24.40    3.42
   0  -6 -15    4.99    1.61
   0  -6 -15   10.17    2.45
   0   6 -15   10.44    2.15
   0  -6 -16  209.59   16.03
   0  -6 -16  233.80   16.70
   0   6 -16  231.33   16.42
   0   6  16  221.85   16.33
   0  -6 -17  562.48   36.36
   0  -6 -17  500.94   43.43
   0   6  17  544.66   36.08
   0   6  17  473.86   40.34
   0   6 -17  539.67   36.11
   0  -6 -17  529.33   35.61
   0   6  18  696.25   51.56
   0   6 -18  764.15   46.81
   0   6  18  679.99   46.34
   0   6 -18  666.51   46.18
   0  -6 -18  721.57   54.90
   0  -6 -19  129.15   16.82
   0   6 -19  132.70   11.07
   0   6 -19  158.29   11.70
   0   6  19  139.76   11.18
   0   6  20  562.91   36.83
   0   6 -20  627.24   37.51
   0   6 -21  246.09   16.69
   0   6  21  241.31   16.23
   0  -6 -22  245.55   16.33
   0   6 -22  249.74   17.08
   0   6 -22  256.13   17.27
   0   6  22  255.07   16.73
   0   6 -23  114.94    9.54
   0   6 -23  120.57    9.52
   0  -6 -23  110.71    8.68
   0   6  23  120.98    9.19
   0   6  24  114.07    5.06
   0   6 -24  111.42    5.65
   0   6 -24  118.63    6.09
   0   6  25    2.23    0.99
   0   6 -25    1.03    1.28
   0   6 -26   13.06    2.13
   0   8   0 3536.25  229.03
   0   8   0 3856.06  229.12
   0   8   0 3494.87  228.92
   0   8   1   11.74    3.82
   0   8   1   13.04    2.33
   0   8  -1   14.79    2.21
   0   8  -1   10.02    2.04
   0   8   1   14.65    2.22
   0   8  -1    9.78    2.19
   0   8  -2 1008.23   68.76
   0   8  -2 1147.89   68.87
   0   8   2 1134.44   68.87
   0   8   2  966.67   73.39
   0   8   2 1025.48   68.71
   0   8  -2 1045.45   68.89
   0   8  -3    5.68    1.71
   0   8   3    5.24    2.67
   0   8   3    5.26    1.56
   0   8  -3    7.22    1.78
   0   8  -3    3.39    1.56
   0   8   3    3.57    1.48
   0   8  -4  201.48   15.84
   0   8   4  216.19   19.99
   0   8   4  232.78   15.97
   0   8  -4  238.37   16.37
   0   8  -5    4.36    1.65
   0   8   5    2.66    2.72
   0   8  -5    7.10    1.57
   0   8  -5    6.86    1.83
   0   8   6  197.14   18.24
   0   8  -6  184.63   14.06
   0   8  -6  190.27   13.33
   0   8  -6  189.11   13.41
   0   8  -6  178.49   13.84
   0   8  -7   12.94    2.14
   0   8  -7    7.94    2.09
   0   8  -7   15.41    2.24
   0   8  -7   13.66    2.70
   0   8  -8  152.36   12.27
   0   8  -8  161.68   11.78
   0  -8  -8  159.11   12.37
   0   8  -8  160.53   11.77
   0   8  -8  158.32   12.52
   0   8   8  171.26   16.65
   0   8   9    6.86    1.93
   0   8   9   12.76    3.93
   0   8  -9    8.13    1.74
   0   8  -9    9.97    1.98
   0  -8  -9    8.52    2.28
   0  -8 -10  192.13   15.61
   0   8 -10  216.81   15.26
   0   8  10  199.04   19.67
   0   8 -10  227.95   15.36
   0   8  10  207.45   15.41
   0   8 -11   40.57    4.70
   0   8  11   55.43    5.29
   0   8 -11   49.37    4.91
   0   8  11   57.17    8.76
   0   8 -12 1538.86   98.01
   0   8  12 1444.41  103.40
   0  -8 -12 1573.03  106.00
   0   8  12 1527.69   98.11
   0   8  13    9.00    3.74
   0   8  13    4.87    1.72
   0  -8 -13    3.79    3.15
   0   8 -13    7.34    2.14
   0  -8 -14 1476.08   92.94
   0   8  14 1342.97   97.74
   0   8 -14 1465.81   92.57
   0  -8 -14 1399.04  100.25
   0   8  14 1412.03   92.52
   0   8  15   -1.49    1.76
   0  -8 -15    3.93    3.64
   0   8  15    4.50    1.72
   0  -8 -15   10.53    2.63
   0   8 -15    2.27    1.47
   0  -8 -15    6.28    1.94
   0  -8 -16   35.18    4.19
   0   8  16   31.27    3.94
   0   8  16   16.08    5.06
   0   8 -16   28.96    3.88
   0  -8 -16   35.86    3.99
   0  -8 -16   29.30    7.11
   0  -8 -17    2.34    1.55
   0  -8 -17    1.16    1.29
   0   8 -17    2.30    1.71
   0   8 -17    1.98    1.64
   0   8  17    2.20    1.42
   0   8 -18  261.52   18.83
   0   8 -18  270.07   19.03
   0   8  18  264.55   18.67
   0  -8 -18  251.95   18.13
   0   8  19   -0.40    1.15
   0   8 -19    0.44    1.31
   0  -8 -19    1.12    0.93
   0   8 -20  302.09   21.65
   0   8  20  316.71   21.50
   0   8  21   22.53    2.81
   0   8 -21   16.23    2.68
   0   8  22   65.51    5.66
   0  -8 -22   65.09    5.41
   0   8 -22   67.09    5.93
   0   8  23    0.74    0.80
   0   8 -23    3.07    1.46
   0  -8 -23    2.22    1.00
   0   8 -24  150.95   10.86
   0   8 -25    6.70    1.30
   0  10   0  880.87   57.87
   0  10   1  292.89   20.88
   0  10  -1  268.69   20.00
   0  10   1  314.02   20.42
   0  10  -1  306.94   21.04
   0  10   2  665.89   43.49
   0  10  -2  651.91   43.49
   0  10   2  694.66   42.96
   0  10  -2  607.75   42.56
   0  10   3  153.20   10.80
   0  10  -3  135.99   11.12
   0  10   3  137.12   11.06
   0  10  -3  131.75   10.43
   0  10   4  871.97   55.70
   0  10  -4  769.88   55.49
   0  10   4  939.22   55.35
   0  10  -4  810.69   54.92
   0  10   5 1427.96  107.17
   0  10  -5 1521.11  100.88
   0  10   5 1838.56  101.40
   0  10   5 1592.91  101.57
   0 -10  -5 1449.60  101.48
   0  10  -5 1538.17  101.63
   0  10  -6  765.44   52.75
   0 -10  -6  765.33   53.43
   0  10   6  754.33   58.88
   0  10   6  924.20   53.26
   0  10  -6  786.36   53.48
   0  10   6  835.14   53.46
   0  10  -7  833.08   55.00
   0  10   7  824.48   54.76
   0  10   7  927.87   54.61
   0  10  -7  798.03   54.24
   0 -10  -7  791.35   54.89
   0  10   7  799.12   60.47
   0  10   8  225.91   15.39
   0 -10  -8  223.09   15.94
   0  10  -8  189.29   15.04
   0  10   8  204.29   20.34
   0 -10  -9   27.79    3.97
   0  10   9   34.94    3.80
   0  10   9   23.84    5.88
   0  10  -9   28.68    3.63
   0 -10 -10   22.19    3.46
   0  10  10   17.20    2.82
   0  10 -10   24.24    2.94
   0  10  10   17.20    4.83
   0 -10 -11  159.23   17.61
   0  10 -11  162.26   11.68
   0 -10 -11  149.97   12.14
   0  10  11  126.98   15.55
   0  10  11  160.65   12.12
   0  10  12  557.60   35.82
   0 -10 -12  484.11   35.66
   0  10 -12  548.50   35.31
   0  10 -13  270.16   17.92
   0 -10 -13  238.59   18.15
   0  10  13  247.75   18.13
   0  10  14    6.23    1.84
   0 -10 -14    8.10    2.03
   0  10 -14    7.78    1.95
   0 -10 -15    8.13    1.90
   0  10  15    9.13    1.92
   0  10 -15    7.22    1.76
   0  10 -16    5.94    1.61
   0 -10 -16    5.25    1.58
   0  10  16    6.74    1.65
   0  10 -16    4.44    1.80
   0 -10 -17    8.39    1.77
   0  10  17   11.81    2.18
   0  10 -17   17.01    2.59
   0  10 -17   13.88    2.17
   0  10 -18  416.08   26.88
   0  10 -18  393.16   27.14
   0  10  18  444.32   27.21
   0 -10 -18  376.60   26.43
   0  10 -19   85.52    4.42
   0  10 -19   81.25    3.93
   0  10  19   88.24    4.34
   0  10 -20  107.18    8.07
   0 -10 -20  106.78    7.95
   0  10 -20  110.00    8.32
   0  10  20  117.65    8.29
   0 -10 -21    2.46    0.77
   0  10 -21    2.37    0.80
   0  10 -21    1.58    0.94
   0 -12   0   37.84    4.37
   0  12   0   41.68    3.82
   0  12   0   40.98    4.66
   0  12  -1  439.69   29.29
   0  12  -1  480.20   30.41
   0  12   1  457.57   30.34
   0 -12  -1  460.48   30.18
   0 -12   1  438.81   30.01
   0  12   1  420.74   29.12
   0  12   2   17.83    2.95
   0  12  -2   19.76    2.45
   0  12  -2   24.25    3.21
   0 -12   2   20.84    2.89
   0  12   2   15.00    2.08
   0 -12  -2   24.88    3.18
   0  12  -3    4.71    1.64
   0  12  -3    4.43    1.33
   0 -12  -3    1.24    1.43
   0  12   3    3.45    1.49
   0 -12  -4    7.01    1.92
   0  12  -4    3.79    1.62
   0  12   4    6.84    1.89
   0  12  -4    3.11    1.27
   0 -12  -5  970.80   65.74
   0  12  -5 1007.56   65.13
   0  12   5 1074.43   66.06
   0 -12  -6   80.14    7.01
   0  12   6   77.82    7.00
   0  12   7  779.40   50.06
   0 -12  -7  746.02   49.90
   0  12   8   48.76    4.98
   0 -12  -8   51.49    5.00
   0  12   9  380.33   25.10
   0 -12  -9  354.21   24.92
   0 -12 -10   15.85    2.45
   0  12  10   16.76    2.57
   0 -12 -11  395.64   26.60
   0 -12 -12    6.33    1.66
   0 -12 -12    3.04    1.35
   0  12 -12    3.84    1.33
   0 -12 -13  771.65   50.04
   0 -12 -13  747.33   49.93
   0  12 -13  799.43   49.91
   0  12  14   55.59    4.83
   0  12 -14   52.65    4.56
   0 -12 -14   54.76    4.61
   0  12  15  184.27   12.28
   0  12 -15  179.23   11.98
   0 -12 -15  160.44   11.86
   0 -12 -16   20.59    1.94
   0  12 -16   16.53    1.97
   0 -14   0  550.14   35.57
   0 -14   1  428.66   28.56
   0 -14  -1  457.53   28.86
   0 -14  -2  225.10   15.31
   0 -14  -3    3.28    1.19
   0 -14  -3    3.28    0.86
   0 -14  -4    0.65    0.91
   0 -14  -4    1.08    0.74
   0 -14  -5  147.01   10.80
   0 -14  -5  180.38   11.28
   0 -14  -6  100.17    7.26
   0 -14  -6  107.32    7.59
   0 -14  -7  377.93   24.72
   0 -14  -8   49.39    3.99
   0 -14  -9    6.29    1.07
   0 -14 -10   23.95    2.17
  -1  -1 -29   39.86    3.74
  -1  -1 -28    7.77    1.88
  -1  -1 -27    3.97    1.41
  -1  -1 -26   35.58    4.30
  -1  -1 -25   68.60    6.61
  -1   1 -24    5.20    1.61
  -1  -1 -24    3.69    1.92
  -1  -1 -23   22.09    3.28
  -1   1 -23   13.45    2.53
  -1  -1 -22    1.07    1.67
  -1   1 -22    3.82    1.58
   1  -1  22    2.04    4.46
   1   1  22    2.19    3.62
  -1  -1 -21    4.24    3.51
  -1  -1 -21    3.45    1.50
   1   1  21    2.15    3.98
  -1  -1 -21    3.64    1.74
  -1   1 -21    2.93    1.53
   1  -1  21   11.99    4.96
  -1  -1 -20    9.42    2.03
  -1  -1 -20    3.01    1.31
  -1   1 -20    2.44    1.41
  -1  -1 -20    6.05    3.74
   1  -1  20    7.68    3.56
  -1   1 -19  105.17    8.74
  -1  -1 -19  128.39    9.47
   1  -1  19   96.10   13.61
  -1   1 -19  104.50    8.98
  -1  -1 -19  117.13   14.89
  -1  -1 -19  106.62    8.63
  -1  -1 -19  105.02    8.15
  -1  -1 -18   15.97    2.79
  -1  -1 -18   21.26    2.49
  -1  -1 -18   18.35    2.58
  -1   1 -18   17.41    2.93
  -1   1 -18   15.58    2.60
  -1   1 -17   64.37    5.54
  -1  -1 -17   78.26    5.99
  -1  -1 -17   56.85    5.32
  -1  -1 -17   76.60   10.57
  -1   1 -17   56.41    5.56
  -1  -1 -17   51.64    4.97
  -1   1 -16   33.06    3.43
  -1  -1 -16   29.42    3.31
  -1  -1 -16   28.69    3.09
  -1   1 -16   28.34    3.42
  -1  -1 -16   28.88    3.40
  -1  -1 -16   36.22    6.73
  -1   1 -16   36.28    3.85
  -1   1 -15    9.19    1.69
  -1  -1 -15    6.89    1.55
  -1  -1 -15   -1.31    2.67
  -1  -1 -15   13.41    4.01
  -1  -1 -15    7.16    1.76
  -1   1 -15    4.79    1.40
  -1   1 -15    5.45    1.63
  -1  -1 -14  445.59   32.39
  -1  -1 -14  447.27   32.25
  -1  -1 -14  425.76   32.40
  -1  -1 -14  390.62   27.46
  -1  -1 -13  262.24   17.99
  -1  -1 -13  246.32   21.46
  -1  -1 -13  246.11   21.60
  -1  -1 -13  294.99   22.17
  -1  -1 -12  958.01   62.09
  -1  -1 -12 1057.74   66.28
  -1   1 -12  917.59   61.84
  -1  -1 -12  987.73   61.91
  -1  -1 -12 1096.17   66.55
  -1  -1 -12  944.58   65.90
  -1  -1 -11  189.06   12.98
  -1  -1 -11  212.87   16.57
  -1  -1 -11  178.54   16.07
  -1  -1 -11  180.68   13.13
  -1   1 -11  197.81   13.07
  -1  -1 -10 1221.48   75.19
  -1   1 -10 1108.20   71.57
  -1  -1 -10 1193.30   74.93
  -1  -1 -10 1107.19   71.73
  -1  -1  -9  155.32   13.20
  -1  -1  -9  157.23   13.02
  -1  -1  -8  296.53   21.08
  -1  -1  -8  272.12   20.66
  -1  -1  -7   92.96    8.27
  -1  -1  -7   89.18    8.03
  -1  -1  -6  590.36   39.55
  -1  -1  -6  593.99   39.42
  -1  -1  -5  468.56   31.65
  -1  -1  -5  475.45   31.54
  -1  -1  -4  147.40   11.07
  -1  -1  -4  154.64   10.99
  -1  -1  -3    3.06    0.97
  -1  -1  -3    5.09    1.23
  -1  -1  -2  459.14   28.72
  -1   1  -2  426.29   28.60
  -1  -1  -2  445.60   28.77
  -1   1  -1  430.81   27.52
  -1  -1  -1  429.65   27.64
  -1  -1  -1  432.66   27.63
  -1   1  -1  421.71   27.70
  -1   1   0 1455.50  103.85
  -1  -1   0 1519.90  104.01
  -1  -1   1  150.89    9.06
  -1   1   1  141.79    9.32
  -1   1   1  126.14    9.02
  -1   1   2  920.74   59.40
  -1  -1   2  955.31   59.38
   1  -1  -3  881.13   56.07
   1  -1  -4  262.12   17.86
   1  -1  -4  266.64   17.73
   1  -1  -5  237.58   16.37
   1  -1  -5  233.09   16.19
   1  -1  -6 2061.86  136.90
   1  -1  -6 2178.89  136.72
   1  -1  -6 2215.05  136.99
   1  -1  -7    1.31    1.02
   1  -1  -7    0.89    1.51
   1  -1  -7    0.39    1.12
   1  -1  -8 1548.22  100.58
   1  -1  -8 1591.07  100.37
   1  -1  -8 1537.31  100.59
   1  -1  -9  170.32   12.94
   1  -1  -9  159.08   12.49
   1  -1  -9  141.33   12.50
   1  -1 -10   19.62    3.67
   1  -1 -10   29.43    4.26
   1   1 -11  646.97   40.75
   1  -1 -11  625.31   40.87
   1  -1 -11  614.24   43.88
   1  -1 -12 1068.87   68.77
   1  -1 -12 1166.41   72.62
   1   1 -12 1066.21   68.61
   1  -1 -13  818.43   56.65
   1  -1 -14  471.67   36.08
   1  -1 -14  504.89   36.03
   1   1 -15  111.14    8.09
   1  -1 -15   96.59    7.79
   1  -1 -15  109.41   11.38
   1  -1 -15   86.69   10.96
   1   1 -16    7.22    1.66
   1  -1 -16    6.75    1.52
   1  -1 -16    6.67    3.15
   1   1 -16    5.40    1.30
  -1  -1  16   12.40    3.99
   1  -1 -16    7.44    3.27
   1   1 -16    8.28    1.74
  -1  -1  17    4.10    2.99
   1  -1 -17    1.36    1.00
   1   1 -17    3.45    1.43
   1  -1 -17    1.67    1.05
   1   1 -17    4.12    1.32
   1   1 -18  656.46   40.89
   1   1 -18  594.92   41.02
  -1  -1  18  651.00   46.98
   1  -1 -18  634.60   41.03
   1  -1 -18  635.77   47.10
   1  -1 -18  597.05   40.57
   1  -1 -19  586.55   40.46
   1   1 -19  619.10   40.69
   1  -1 -19  564.02   46.40
   1  -1 -19  576.34   40.06
   1   1 -19  680.59   40.52
  -1  -1  19  662.52   47.36
   1   1 -20  426.53   29.75
   1  -1 -20  422.60   36.11
  -1  -1  20  429.51   36.01
   1  -1 -20  456.10   29.76
   1   1 -20  456.69   29.50
   1  -1 -20  417.14   29.16
   1  -1 -21   17.42    5.68
   1  -1 -21   21.23    2.80
   1   1 -21   12.85    2.57
  -1  -1  21   16.65    5.44
   1  -1 -21   28.01    3.37
   1  -1 -21   23.83    3.35
  -1  -1  22    9.63    4.25
   1  -1 -22    8.27    1.91
   1   1 -22    8.82    2.00
   1  -1 -22    8.96    2.35
  -1   1  22   14.56    5.73
   1  -1 -22    2.04    3.81
   1   1 -23    1.62    1.34
   1  -1 -23    1.54    1.59
  -1  -1  23    1.96    2.82
  -1   1  23   -2.12    3.04
   1  -1 -23    2.11    2.47
   1  -1 -24  605.69   38.09
   1   1 -24  528.29   37.13
   1   1 -25  104.12    8.21
   1  -1 -25   92.58    8.62
   1   1 -26  455.03   32.02
   1  -1 -26  528.29   33.13
   1  -1 -27    4.45    2.00
   1  -1 -28   95.27    7.96
   1  -1 -29   30.03    3.46
   1  -1 -30    1.41    1.00
  -1  -3 -28   -1.25    1.06
  -1   3 -28    1.31    1.12
  -1   3 -27    2.87    1.49
  -1  -3 -27    1.99    1.25
  -1  -3 -26   44.34    4.24
  -1   3 -26   36.10    4.40
  -1   3 -25   67.63    6.60
  -1   3 -25   61.84    5.91
  -1  -3 -25   66.87    6.12
  -1   3 -24    2.13    1.78
  -1  -3 -24    6.64    2.02
  -1   3 -24    3.42    2.01
  -1  -3 -23    1.72    0.91
  -1   3 -23    3.14    1.70
  -1   3 -23    1.20    2.23
  -1  -3 -23    0.93    1.69
  -1   3 -22    0.46    1.42
  -1  -3 -22    0.48    1.43
  -1   3 -22    0.49    1.47
   1  -3  22    1.74    2.87
  -1   3 -22    0.62    1.83
   1   3  22    1.97    3.64
  -1  -3 -22    2.59    1.09
  -1   3 -21  265.46   18.75
  -1  -3 -21  246.28   18.61
   1   3  21  246.92   25.37
  -1  -3 -21  267.53   17.97
  -1   3 -21  251.53   18.79
   1  -3  21  223.79   23.80
  -1   3 -21  271.30   19.56
  -1  -3 -20  113.87    8.11
   1  -3  20   65.23   11.66
  -1  -3 -20  119.44    8.82
  -1   3 -20   92.39    8.26
   1   3  20   98.55   13.83
  -1   3 -20   93.44    8.44
  -1   3 -20   78.22    8.55
  -1  -3 -19  274.16   25.54
   1   3  19  208.14   24.19
   1  -3  19  278.16   25.01
  -1   3 -19  262.73   18.98
  -1   3 -19  275.23   27.53
  -1   3 -19  278.01   19.85
  -1  -3 -19  265.04   19.07
  -1  -3 -19  262.33   18.61
  -1   3 -19  279.39   19.32
   1  -3  18   18.85    5.26
   1   3  18   12.71    5.27
  -1  -3 -18   10.06    2.13
  -1   3 -18    8.70    4.83
  -1  -3 -18    3.39    2.93
  -1   3 -18   16.47    2.72
  -1   3 -18   19.86    2.81
  -1   3 -18   20.95    3.28
  -1   3 -17  333.35   29.92
  -1   3 -17  326.25   21.71
   1  -3  17  300.83   26.67
   1   3  17  252.41   26.38
  -1  -3 -17  287.14   26.77
  -1   3 -17  316.77   22.24
  -1   3 -17  320.76   21.79
  -1  -3 -17  306.91   21.68
  -1   3 -16   33.06    4.11
  -1   3 -16   48.06    4.65
  -1   3 -16   39.03    8.45
  -1  -3 -16   52.27    8.17
  -1   3 -16   44.38    4.90
  -1  -3 -16   56.67    4.84
  -1  -3 -15  188.25   18.96
  -1  -3 -15  205.41   14.99
  -1   3 -15  203.60   15.33
  -1   3 -15  213.21   15.11
  -1   3 -15  228.94   21.46
  -1  -3 -15  220.76   15.02
  -1   3 -15  205.86   14.96
  -1   3 -15  225.63   15.65
  -1   3 -14  310.66   25.98
  -1  -3 -14  283.86   20.00
  -1   3 -14  306.99   20.22
  -1  -3 -14  289.84   24.06
  -1   3 -14  295.18   19.80
  -1   3 -14  306.71   19.96
  -1  -3 -14  260.18   19.55
  -1   3 -13   15.26    4.36
  -1   3 -13   10.88    1.70
  -1  -3 -13   12.16    2.15
  -1   3 -13   12.80    1.95
  -1  -3 -13   10.86    3.44
  -1  -3 -12   13.65    3.67
  -1   3 -12    7.47    2.99
  -1   3 -12    9.40    1.51
  -1  -3 -12   16.52    2.38
  -1  -3 -11   91.29    7.36
  -1  -3 -11   79.70    9.96
  -1  -3 -11  111.46   10.28
  -1   3 -11  101.93    9.42
  -1   3 -11  105.62   11.13
  -1   3 -11   93.64    6.94
  -1   3 -10   76.67    5.43
  -1   3 -10   65.22    8.39
  -1   3 -10   67.34    7.24
  -1  -3 -10   86.09    9.02
  -1  -3 -10   65.07    7.55
  -1  -3 -10   64.90    5.64
  -1  -3  -9  455.41   32.40
  -1   3  -9  469.58   33.48
  -1  -3  -9  461.14   33.19
  -1   3  -9  455.01   31.88
  -1  -3  -8   38.60    5.18
  -1   3  -8   28.96    4.87
  -1   3  -8   35.59    4.42
  -1   3  -7 3226.58  226.08
  -1   3  -7 3856.84  225.28
  -1  -3  -7 3368.14  226.03
  -1  -3  -7 3651.32  225.66
  -1  -3  -6  654.26   46.07
  -1   3  -6  657.50   46.18
  -1   3  -6  774.47   45.54
  -1  -3  -6  659.01   45.62
  -1   3  -5 2509.47  145.67
  -1   3  -5 2091.53  146.18
  -1  -3  -5 2277.44  145.88
  -1  -3  -5 2238.21  146.26
  -1   3  -4   10.71    1.59
  -1  -3  -4    5.84    1.67
  -1  -3  -4    7.16    1.61
  -1  -3  -3  667.29   46.40
  -1  -3  -3  691.54   46.58
  -1   3  -3  687.96   46.82
  -1   3  -3  810.91   46.29
  -1  -3  -2  179.33   13.39
  -1   3  -2  214.42   13.22
  -1   3  -1 1368.05   81.79
   1   3   1 1187.37   83.47
  -1   3  -1 1252.74   83.34
  -1  -3  -1 1241.65   81.94
  -1   3   0 1183.46   74.59
   1   3   0 1130.65   74.66
  -1   3   1 3239.09  206.58
   1   3  -1 3288.02  206.66
  -1   3   2    2.07    0.57
  -1  -3   2    3.79    0.61
  -1  -3   3   12.41    1.34
  -1   3   3    8.68    1.30
   1   3  -3    9.13    1.47
  -1   3   3    7.91    1.95
   1  -3  -4  414.16   25.71
  -1  -3   4  433.23   25.67
  -1   3   4  396.08   25.79
  -1  -3   5 1703.38  102.84
  -1   3   5 1537.50  102.97
   1  -3  -5 1601.86  102.78
   1  -3 -10    3.51    2.06
   1   3 -11  845.28   58.83
   1  -3 -11  916.23   59.60
   1  -3 -11  839.91   57.99
   1   3 -12    1.01    1.69
   1  -3 -12    9.57    3.53
   1  -3 -12    9.66    2.51
   1  -3 -13 1976.75  126.53
   1   3 -13 1773.86  125.73
  -1  -3  13 2203.84  125.72
   1  -3 -13 1947.83  124.90
  -1   3  13 1681.56  125.15
   1   3 -14  204.65   14.80
   1   3 -14  188.33   18.78
  -1  -3  14  229.25   18.56
  -1   3  14  203.02   18.95
   1  -3 -14  230.03   18.62
  -1  -3  15  286.88   22.77
   1  -3 -15  277.83   22.60
   1  -3 -15  269.43   18.74
   1  -3 -15  312.27   24.50
  -1   3  15  223.35   22.50
   1   3 -15  263.30   18.54
   1  -3 -15  281.78   18.53
   1   3 -15  265.06   18.76
   1   3 -15  274.67   23.86
  -1   3  16  187.30   21.59
   1  -3 -16  250.93   23.16
   1  -3 -16  258.05   18.01
   1  -3 -16  239.01   17.69
   1   3 -16  269.74   18.23
  -1  -3  16  304.73   23.02
   1   3 -16  278.97   18.21
   1   3 -16  278.12   18.03
   1  -3 -16  233.14   21.79
   1   3 -16  229.68   22.80
   1   3 -17  687.08   45.76
   1  -3 -17  668.20   50.49
   1  -3 -17  691.87   45.37
   1   3 -17  697.85   52.40
  -1  -3  17  721.51   50.89
   1  -3 -17  691.66   52.19
   1   3 -17  726.68   45.78
   1   3 -17  705.87   45.54
  -1   3  17  590.88   50.69
   1  -3 -18  232.80   21.56
  -1  -3  18  193.72   19.13
   1   3 -18  200.37   20.89
   1  -3 -18  167.56   18.43
   1   3 -18  193.66   14.29
  -1   3  18  181.13   19.66
   1  -3 -18  226.58   14.43
   1   3 -18  191.46   14.45
   1   3 -18  179.88   14.45
   1   3 -19  604.96   46.68
   1   3 -19  584.85   38.30
   1   3 -19  567.69   38.41
   1   3 -19  570.66   38.58
   1  -3 -19  566.45   38.20
   1  -3 -19  636.98   45.15
   1  -3 -19  514.51   44.75
  -1  -3  19  618.69   44.64
  -1   3  19  558.84   45.04
   1  -3 -19  571.49   38.09
   1   3 -20  219.56   16.57
   1   3 -20  256.17   17.28
   1  -3 -20  220.33   15.82
  -1  -3  20  214.44   21.55
   1  -3 -20  224.96   23.13
   1   3 -20  226.26   16.38
   1   3 -20  184.96   22.56
  -1   3  20  213.68   22.58
   1  -3 -20  205.74   21.60
   1  -3 -20  234.64   16.48
  -1   3  21  671.29   54.54
   1  -3 -21  699.41   54.31
   1  -3 -21  669.13   47.19
   1   3 -21  738.34   56.81
  -1  -3  21  826.25   54.84
   1   3 -21  745.80   47.66
   1   3 -21  765.91   47.48
   1   3 -21  779.92   48.20
   1  -3 -21  663.70   46.46
   1   3 -22   22.06    3.55
   1  -3 -22   22.70    3.40
  -1  -3  22   25.70    6.21
   1   3 -22   31.11    3.82
  -1   3  22   21.75    6.52
   1   3 -22   18.75    7.16
   1  -3 -22   20.48    6.16
   1   3 -22   29.77    4.23
   1   3 -23    2.31    1.73
   1  -3 -23    1.37    1.26
   1   3 -23    1.77    1.32
   1   3 -23    2.45    1.47
   1   3 -24  105.76    9.49
   1   3 -24  107.84   10.12
   1  -3 -25   21.35    3.29
   1   3 -25   29.70    4.26
   1   3 -25   28.90    3.61
   1  -3 -26    2.36    1.53
   1   3 -26    1.49    1.70
   1   3 -26    2.99    1.58
   1   3 -27    4.23    1.28
   1  -3 -27    2.06    1.12
   1   3 -28   18.16    2.54
   1  -3 -28   12.90    2.10
   1   3 -29  128.41    9.10
   1  -3 -29  118.39    8.78
  -1   5 -26   11.51    1.94
  -1   5 -26   -0.20    0.23
   1   5  25    6.25    1.42
  -1   5 -25    2.64    1.45
  -1   5 -25    8.05    1.89
  -1  -5 -24   22.60    2.44
  -1   5 -24   30.64    3.26
   1   5  24   30.34    2.91
  -1   5 -24   20.21    2.75
  -1  -5 -23   90.28    6.29
  -1  -5 -23   52.74    5.94
  -1   5 -23   58.88    6.49
   1   5  23   96.31    6.92
  -1   5 -23   88.16    7.15
  -1   5 -23   71.67    6.86
   1   5  22   24.99    3.38
  -1   5 -22   31.30    3.87
  -1   5 -22   23.37    3.64
  -1  -5 -22   22.88    3.19
  -1   5 -22   33.20    4.12
  -1  -5 -22   23.17    3.06
  -1   5 -21   54.77    5.91
  -1  -5 -21   58.57    5.47
  -1   5 -21   57.67    5.93
  -1  -5 -21   60.99    5.64
  -1   5 -21   55.72    6.13
  -1   5 -20   46.03    5.18
  -1   5 -20   54.14    5.39
  -1  -5 -20   40.70    4.78
  -1   5 -20   51.03    5.51
  -1  -5 -20   39.60    9.10
  -1   5 -19    4.44    2.06
  -1   5 -19    7.72    2.35
  -1   5 -19   10.93    2.41
  -1  -5 -19    4.15    3.45
  -1  -5 -19    2.86    1.47
  -1  -5 -18   99.90   13.33
  -1   5 -18   75.03    7.13
  -1   5 -18   74.80    7.40
   1   5  18   84.44   11.03
   1  -5  18   88.67   11.22
  -1  -5 -18   77.53    6.89
  -1   5 -17   27.01    3.43
   1  -5  17   23.09    5.29
  -1   5 -17   27.74    3.86
  -1  -5 -17   12.06    2.51
   1   5  17   20.08    5.04
  -1  -5 -17   17.76    5.54
  -1  -5 -16   24.53    3.10
   1   5  16   17.80    4.78
  -1   5 -16   21.39    3.39
   1  -5  16   29.57    6.02
  -1  -5 -16   25.94    3.58
  -1  -5 -16   27.31    3.32
  -1  -5 -16   28.31    6.80
   1   5  15   29.65    5.91
  -1  -5 -15   34.52    3.99
  -1   5 -15   24.27    3.66
  -1  -5 -15   24.97    6.50
   1  -5  15   20.41    4.88
  -1  -5 -15   31.23    3.59
  -1   5 -14  477.23   31.06
  -1  -5 -14  446.48   31.01
   1  -5  14  483.71   34.70
  -1  -5 -14  464.70   37.06
   1   5  14  428.82   34.50
  -1   5 -14  455.04   30.62
  -1  -5 -14  446.16   30.60
  -1   5 -13  192.66   14.06
   1  -5  13  178.50   16.09
  -1   5 -13  160.85   13.17
  -1   5 -13  177.37   13.00
  -1  -5 -13  173.38   17.95
   1   5  13  160.70   16.04
  -1  -5 -13  204.15   13.79
  -1   5 -12  257.81   21.04
  -1   5 -12  192.95   15.42
  -1  -5 -12  242.49   20.61
   1   5  12  182.89   17.52
  -1   5 -12  214.49   14.86
  -1  -5 -12  195.87   15.27
   1  -5  12  253.57   18.37
  -1   5 -11  307.26   23.33
  -1  -5 -11  339.79   23.42
  -1  -5 -11  307.93   26.01
   1  -5  11  377.44   25.82
  -1   5 -11  340.21   22.85
   1   5  11  349.52   26.01
  -1  -5 -11  341.38   27.92
  -1   5 -11  420.98   28.82
   1  -5  10   58.14    6.15
   1   5  10   44.57    5.74
  -1   5 -10   43.25    6.78
   1  -5   9   14.71    2.96
   1   5   9   19.41    3.59
   1  -5   8   43.00    4.64
   1   5   8   27.17    4.29
  -1   5  -7  685.34   47.22
   1   5   7  760.33   48.54
   1  -5   7  779.99   48.26
   1   5   6  194.53   14.59
  -1   5  -6  190.75   14.00
   1  -5   6  227.43   14.64
  -1   5  -5  234.01   15.98
   1   5   5  224.12   16.10
   1  -5   5  245.15   16.07
  -1   5  -4  321.00   19.43
   1   5   4  316.28   22.34
  -1   5  -4  272.23   19.70
   1   5   4  273.42   18.90
  -1   5  -3    3.92    1.15
   1   5   3    4.37    2.10
   1   5   3    3.49    1.08
  -1   5  -2   24.54    2.56
   1   5   2   31.23    4.52
   1   5   2   25.06    2.52
   1   5   1 1285.48   88.84
  -1   5  -1 1367.49   86.24
  -1   5  -1 1402.19   89.03
  -1   5   0  565.65   35.50
  -1   5   0  576.61   38.22
   1   5   0  473.70   37.59
   1   5  -1 2059.26  131.79
  -1   5   1 2153.49  131.87
  -1   5   1 2008.31  129.03
  -1   5   2   27.82    4.26
  -1   5   3  410.22   29.40
  -1   5   4    9.98    2.77
  -1   5   4    9.50    1.54
  -1   5   5   12.50    1.77
  -1   5   5   13.74    1.64
  -1   5   5   12.55    3.04
   1   5  -6  216.85   14.73
  -1   5   6  189.34   13.79
  -1  -5   6  184.86   13.54
  -1   5   6  186.11   13.52
  -1   5   6  189.77   16.08
   1   5  -6  227.22   13.73
   1  -5  -6  190.54   14.13
  -1   5   7  214.57   17.59
  -1   5   7  207.60   15.57
  -1  -5   7  223.55   15.39
   1  -5  -7  220.34   15.98
  -1   5   7  218.59   14.97
   1   5  -7  215.08   14.98
   1   5  -7  225.89   16.51
  -1   5   8   73.80    7.64
   1   5  -8   92.09    7.07
   1   5  -8   95.98    8.82
  -1  -5   8  102.64    7.85
   1  -5  -8   86.36    8.07
   1   5  -9   59.98    7.02
  -1   5   9   65.37    6.62
   1  -5  -9   60.70    6.60
  -1  -5   9   56.40    6.03
   1   5 -10   76.36    8.45
  -1  -5  10   89.06    7.79
   1  -5 -10   72.90    7.71
  -1   5  10   58.03    7.17
   1  -5 -11 1550.54   98.81
  -1   5  11 1497.83   98.72
   1   5 -11 1399.57   96.37
  -1  -5  11 1664.48   98.52
   1   5 -11 1539.58   99.96
   1   5 -12    7.58    1.62
   1  -5 -12    2.65    1.83
   1  -5 -12    3.99    1.72
  -1   5  12    4.53    2.51
  -1  -5  12    7.11    2.19
  -1  -5  13 3420.57  197.88
  -1   5  13 3005.33  197.90
   1   5 -13 3131.62  199.59
   1  -5 -13 2950.62  194.72
   1  -5 -13 3009.27  197.73
   1   5 -13 3072.88  194.16
   1   5 -14  311.49   23.25
  -1   5  14  199.94   19.84
   1   5 -14  259.48   17.08
   1  -5 -14  198.79   19.50
   1   5 -14  252.38   16.90
   1  -5 -14  208.74   17.07
  -1  -5  14  282.45   20.73
  -1  -5  15 1201.69   74.77
  -1   5  15 1051.55   74.62
   1   5 -15 1090.58   70.41
   1   5 -15 1079.21   76.45
   1  -5 -15 1087.48   70.77
   1  -5 -15 1028.64   74.31
   1   5 -16    8.36    4.08
   1  -5 -16   25.12    3.48
   1  -5 -16   24.32    5.21
  -1  -5  16   13.14    4.12
   1   5 -16   17.89    2.87
  -1   5  16   32.74    6.14
   1  -5 -17   36.70    3.85
  -1   5  17   38.94    6.78
   1  -5 -17   31.59    6.41
   1   5 -17   32.40    7.02
   1  -5 -17   36.23    4.34
   1   5 -17   35.70    4.24
  -1  -5  17   32.05    6.12
   1   5 -18    1.92    3.54
  -1  -5  18   -1.35    2.50
   1   5 -18    2.84    1.57
   1  -5 -18    1.08    1.07
   1   5 -18    1.39    1.33
   1   5 -18    0.88    1.54
   1  -5 -18    2.26    1.67
  -1   5  18    1.45    2.41
   1  -5 -18   -1.46    4.00
   1   5 -19  634.29   43.08
   1   5 -19  674.23   43.20
   1   5 -19  657.42   42.98
  -1   5  19  672.42   48.63
  -1  -5  19  645.98   47.84
   1  -5 -19  616.32   42.38
   1   5 -20   93.06    7.69
   1   5 -20   89.42    7.42
   1   5 -20   78.88    7.26
   1  -5 -20   65.15    6.60
  -1   5  20   63.31   10.07
   1   5 -21  110.35    9.68
   1  -5 -21  111.36    9.12
   1   5 -21  105.70    9.50
   1   5 -21  118.28    9.60
  -1   5  21  125.26    9.59
   1  -5 -22    3.79    1.45
   1  -5 -22    3.07    1.43
  -1   5  22    1.70    1.28
   1   5 -22    4.50    1.90
   1   5 -22    4.69    1.91
   1   5 -22    2.48    1.65
  -1   5  23  301.98   19.81
   1  -5 -23  258.18   19.33
   1  -5 -23  282.35   19.13
   1   5 -23  258.26   19.88
   1   5 -23  285.50   20.18
   1   5 -23  299.72   20.11
  -1   5  24  132.49    9.98
   1   5 -24  159.58   10.71
   1   5 -24  138.68   10.56
   1   5 -24  144.79   10.52
   1   5 -25  526.81   35.90
   1   5 -25  590.66   36.31
   1  -5 -25  483.14   35.35
  -1   5  25  594.07   35.77
   1   5 -26   28.62    3.05
   1   5 -26    5.11    1.42
   1   5 -27  115.63    5.01
   1   5 -27   -0.19    0.27
  -1  -7 -24   -0.15    0.25
   1   7  24   53.92    3.13
   1   7  23   59.56    4.97
  -1  -7 -23   49.40    4.45
   1   7  22  124.06    8.97
  -1  -7 -22  104.48    8.46
   1   7  21    4.07    1.48
  -1  -7 -21    1.67    1.23
  -1   7 -21    6.53    1.81
  -1   7 -20  118.46   10.07
   1   7  20  128.74    9.89
   1   7  19   38.21    4.34
  -1   7 -19   39.29    4.64
  -1  -7 -18  445.86   35.97
  -1  -7 -18  378.40   27.15
   1   7  18  413.46   27.87
  -1   7 -18  430.86   28.18
   1   7  17   83.24    7.46
  -1  -7 -17   83.06    7.20
   1   7  17   73.08   10.53
  -1  -7 -17   84.27    7.67
  -1   7 -17   92.61    7.87
  -1  -7 -17   75.58   11.98
  -1   7 -17   81.26    7.54
   1   7  16   12.05    4.22
  -1  -7 -16   11.89    4.72
  -1  -7 -16   12.16    2.41
  -1  -7 -16   20.94    3.23
  -1   7 -16   13.11    2.66
   1   7  16   14.34    2.66
  -1   7 -15   14.61    2.68
  -1  -7 -15   19.47    5.88
   1   7  15   18.01    4.74
   1   7  15   13.72    2.68
  -1  -7 -15   17.56    2.88
  -1  -7 -15   13.57    2.89
   1   7  14    7.39    3.49
  -1  -7 -14    8.54    2.25
  -1   7 -14    8.78    2.14
   1   7  14   10.81    2.17
  -1  -7 -14    9.46    4.45
  -1  -7 -14    4.51    1.97
  -1   7 -13   17.24    2.85
  -1  -7 -13   15.92    2.99
  -1  -7 -13   12.72    4.85
   1   7  13   16.77    2.71
   1   7  13   13.01    4.09
   1   7  12  325.50   22.20
  -1  -7 -12  282.22   27.66
   1   7  12  295.28   26.64
  -1   7 -12  326.83   22.15
  -1  -7 -11   98.40   12.53
   1   7  11   83.12   10.89
  -1   7 -11   90.18    7.68
   1   7  11   96.29    7.79
  -1   7 -10   68.26    6.23
   1   7  10   63.28    9.12
  -1  -7 -10   72.74    6.81
  -1   7 -10   79.60    6.32
   1   7  10   69.94    6.31
  -1  -7  -9   10.97    2.46
  -1   7  -9   16.71    2.36
  -1   7  -9   17.54    2.86
  -1   7  -9   16.80    2.44
   1   7   9   19.14    4.71
   1   7   9   20.30    2.75
  -1   7  -8  350.45   25.49
  -1   7  -8  362.71   25.54
  -1   7  -8  385.02   25.00
   1   7   8  332.68   29.01
  -1   7  -8  398.43   24.98
  -1  -7  -8  357.69   25.47
  -1   7  -7  160.68   12.49
  -1  -7  -7  176.07   12.68
  -1   7  -7  171.18   11.92
   1   7   7  170.38   15.98
  -1   7  -7  158.34   11.87
  -1   7  -7  162.18   12.47
  -1   7  -6  780.63   52.34
   1   7   6  837.66   56.82
  -1   7  -6  773.38   52.36
  -1   7  -6  828.92   51.76
  -1   7  -5  540.79   36.55
   1   7   5  572.92   36.38
  -1   7  -5  553.78   35.99
   1   7   5  574.76   40.76
  -1   7  -5  530.55   36.57
   1   7   4 1605.11  107.08
  -1   7  -4 1632.67  102.86
  -1   7  -4 1534.68  102.71
   1   7   4 1658.06  102.59
   1   7   3  243.15   16.00
  -1   7  -3  204.22   15.92
   1   7   3  249.68   20.07
  -1   7  -3  233.09   16.27
  -1   7  -2   66.67    5.73
   1   7   2   66.92    5.60
  -1   7  -2   63.19    5.79
   1   7   2   65.30    8.39
   1   7   1   22.23    2.80
  -1   7  -1   28.56    3.07
   1   7   1   16.22    4.45
   1   7   1   18.70    2.62
  -1   7  -1   33.59    3.41
   1   7   0  106.64    8.49
   1   7   0  129.91    8.82
   1   7   0  104.78   11.57
  -1   7   0  110.23    8.62
  -1   7   0   91.81   11.19
  -1   7   0  117.34    8.90
  -1   7   1   91.14    7.31
   1   7  -1   93.03    7.30
   1   7  -1   84.82    7.15
   1   7  -1   66.16    9.50
  -1   7   1   83.94    9.98
   1   7  -2  152.76   11.01
   1   7  -2  160.61   11.15
  -1   7   2  131.50   13.96
  -1   7   2  149.35   11.04
   1   7  -2  135.72   14.02
   1   7  -3   29.89    3.47
  -1   7   3   36.87    6.07
   1   7  -3   39.61    3.76
  -1   7   4 1504.70   93.94
   1   7  -4 1366.35   89.10
   1   7  -5  725.37   46.47
  -1   7   5  734.17   50.54
   1   7  -5  687.05   46.17
   1   7  -6 4590.14  296.91
   1   7  -6 4569.52  297.08
  -1   7   6 4637.85  296.85
  -1   7   6 4971.08  301.82
   1   7  -6 4902.20  296.57
   1   7  -7  436.16   30.81
   1   7  -7  467.42   31.11
  -1   7   7  521.12   35.63
   1   7  -7  457.64   30.46
  -1   7   7  470.10   30.81
  -1   7   8 2115.85  134.11
   1   7  -8 1955.67  129.33
   1   7  -8 2094.51  128.89
   1   7  -8 1944.55  129.42
  -1   7   8 2051.50  129.21
   1   7  -8 2046.47  128.85
   1   7  -9  372.79   25.66
  -1   7   9  404.09   25.45
   1   7  -9  319.33   25.29
   1   7  -9  371.30   25.07
  -1   7   9  402.39   29.96
   1   7  -9  386.46   25.07
  -1   7  10  522.98   39.69
   1   7 -10  527.86   34.92
  -1   7  10  520.06   35.13
   1   7 -10  535.14   34.92
   1   7 -11   40.50    4.41
  -1   7  11   44.55    7.38
  -1   7  11   44.60    4.70
   1   7 -12  401.79   25.85
  -1   7  12  351.17   25.74
   1   7 -12  397.41   25.79
   1  -7 -12  368.18   26.28
  -1   7  12  349.73   29.99
   1  -7 -13   17.43    3.02
   1   7 -13   18.77    2.80
  -1   7  13   20.09    2.95
  -1   7  13   13.88    4.44
   1   7 -14   70.10    6.52
  -1   7  14   78.15   10.31
   1  -7 -14   74.46    7.08
  -1   7  14   72.26    6.67
   1  -7 -15   54.07    5.78
  -1   7  15   56.87    5.56
   1   7 -15   49.28    5.34
   1   7 -16  252.31   17.82
   1  -7 -16  237.31   17.91
  -1   7  16  213.78   21.61
  -1   7  16  253.61   17.82
   1  -7 -16  244.43   17.60
   1  -7 -17  129.72   10.49
  -1   7  17  129.61   10.31
   1  -7 -17  135.10   10.14
  -1   7  17  134.46   14.54
   1   7 -17  110.20   10.08
   1  -7 -18 1534.27   95.87
  -1   7  18 1449.85   95.61
   1  -7 -18 1423.57   95.07
   1   7 -18 1565.77   95.89
   1   7 -19  367.38   27.04
  -1   7  19  432.19   27.10
   1   7 -19  370.82   26.94
   1   7 -20  911.23   60.19
  -1   7  20  899.02   59.90
   1   7 -20  950.60   60.43
  -1   7  21  104.86    8.31
   1   7 -21   90.72    8.38
   1  -7 -22   71.79    6.37
  -1   7  22   74.33    6.63
   1   7 -22   91.78    7.37
   1  -7 -23   48.85    4.29
  -1   7  23   50.22    4.59
   1   7 -23   38.44    4.61
  -1   7  24   33.72    2.75
   1   7 -24   45.44    3.68
   1   7 -25   37.58    3.91
   1   7 -26  205.09   14.21
  -1   9 -22  155.53   11.12
  -1  -9 -22  158.53   10.73
  -1   9 -21   24.92    2.88
  -1   9 -21   21.70    2.63
  -1  -9 -21   17.74    2.25
   1   9  21   18.79    2.45
   1   9  20  121.91    9.38
  -1   9 -20  132.43    9.57
  -1   9 -20  118.99    9.55
  -1   9 -19    1.40    1.23
  -1   9 -19    0.39    1.46
  -1  -9 -19   -0.21    0.34
   1   9  19    1.34    1.17
  -1  -9 -18  200.12   15.00
  -1   9 -18  227.37   15.93
   1   9  18  224.78   15.68
  -1   9 -18  230.05   15.78
   1   9  17    0.39    1.45
  -1   9 -17   -0.44    1.50
  -1   9 -17    0.40    1.10
  -1   9 -16  338.28   22.57
  -1  -9 -16  321.34   22.56
  -1   9 -16  343.98   22.89
   1   9  16  307.90   22.37
  -1  -9 -16  307.63   22.14
   1   9  15   13.64    2.55
  -1  -9 -15   12.32    2.42
  -1   9 -15   17.83    2.88
  -1   9 -14  978.61   63.23
  -1  -9 -14  934.25   63.17
   1   9  14 1000.29   63.34
   1   9  13   21.29    5.52
  -1   9 -13   18.63    3.09
  -1  -9 -13   23.40    6.29
   1   9  13   27.83    3.57
   1   9  12 1922.81  117.09
   1   9  12 1725.22  122.60
  -1  -9 -12 1782.85  117.23
  -1  -9 -12 1701.29  123.64
  -1   9 -12 1837.89  116.84
  -1  -9 -11  191.73   14.84
   1   9  11  170.97   18.69
  -1  -9 -11  195.95   20.19
   1   9  11  193.34   14.53
  -1   9 -11  206.04   14.44
  -1  -9 -10 1124.45   73.53
   1   9  10 1055.57   78.57
  -1   9 -10 1150.32   72.92
  -1  -9  -9  227.20   16.71
  -1   9  -9  223.18   16.05
  -1   9  -9  228.08   16.13
   1   9   9  205.14   20.78
  -1  -9  -8   87.71    7.86
  -1   9  -8   84.06    7.24
   1   9   8   72.71   10.78
  -1   9  -8   92.38    7.38
  -1   9  -7    3.59    1.82
   1   9   7    2.12    1.38
  -1  -9  -7    5.77    2.00
   1   9   7    9.23    3.82
  -1   9  -7    3.95    1.35
   1   9   6   92.07    7.06
  -1   9  -6   77.79    6.65
  -1   9  -6   73.40    7.21
  -1  -9  -6   66.96    7.03
   1   9   6   80.77    7.05
  -1   9  -6   82.17    7.54
   1   9   6   74.97   10.52
   1   9   5  208.57   21.28
   1   9   5  280.60   17.08
   1   9   5  243.97   17.08
  -1  -9  -5  221.02   17.11
  -1   9  -5  220.13   16.46
  -1   9  -5  219.76   17.18
  -1   9  -5  243.43   17.68
   1   9   4   77.26    6.43
  -1   9  -4   71.22    6.66
  -1   9  -4   63.37    5.75
   1   9   4   71.31   10.06
   1   9   4   83.44    6.37
  -1   9  -3   37.69    4.40
  -1   9  -3   35.10    4.37
  -1   9  -3   36.71    3.83
   1   9   3   36.32    7.13
   1   9   3   38.53    4.09
   1   9   3   39.04    4.26
   1   9   2 1362.28   83.46
   1   9   2 1441.58   83.21
   1   9   2 1317.82   89.35
  -1   9  -2 1189.41   82.66
  -1   9  -2 1266.66   83.53
  -1   9  -2 1235.95   83.52
   1   9   1  261.31   19.19
  -1   9  -1  256.47   19.38
  -1   9  -1  256.74   19.26
   1   9   1  294.29   19.02
   1   9   1  265.35   24.24
  -1   9  -1  293.23   19.32
  -1   9   0 2605.94  185.75
  -1   9   0 2790.42  186.11
  -1   9   0 3092.80  186.07
   1   9   0 3192.51  185.77
   1   9   0 2988.58  186.08
   1   9  -1   96.58    8.65
   1   9  -1  117.26    8.56
  -1   9   1  122.20    8.97
  -1   9   1   94.72    8.72
  -1   9   2 1690.56  102.36
   1   9  -2 1521.14  102.21
  -1   9   2 1577.18  102.37
  -1   9   3  450.47   29.18
   1   9  -3  432.70   29.14
  -1   9   3  401.86   29.07
  -1   9   4   18.28    5.18
  -1   9   4   22.15    3.12
  -1   9   4   18.90    2.98
   1   9  -4   25.15    3.27
   1   9  -4   16.17    2.49
   1   9  -5  152.33   12.45
  -1   9   5  182.96   12.73
  -1   9   5  172.42   17.35
   1   9  -5  160.36   12.12
  -1   9   6  579.96   42.06
   1   9  -6  546.15   36.23
   1   9  -6  522.45   35.61
   1   9  -7  169.14   11.60
   1   9  -7  149.92   12.09
   1   9  -7  145.59   11.56
  -1   9   7  159.78   16.66
   1   9  -8  820.10   52.87
   1  -9  -8  815.06   53.57
   1   9  -8  730.96   53.17
  -1   9   8  869.79   59.45
   1   9  -8  848.76   52.76
  -1   9   9   35.64    3.99
   1   9  -9   28.61    3.46
  -1   9   9   30.95    6.52
   1  -9  -9   25.60    3.94
   1   9  -9   26.33    3.46
  -1   9  10   46.49    8.18
  -1   9  10   54.62    5.53
   1   9 -10   45.62    5.11
   1  -9 -10   57.51    5.80
   1   9 -10   59.93    5.35
  -1   9  11  241.38   23.20
   1   9 -11  261.22   18.34
  -1   9  11  269.02   18.66
   1  -9 -11  237.33   18.62
   1   9 -11  261.21   18.21
  -1   9  12 2045.53  134.37
   1  -9 -12 1975.11  135.99
  -1   9  12 2072.20  128.39
   1   9 -12 1947.96  127.91
   1  -9 -13  275.18   27.85
  -1   9  13  295.80   26.68
   1   9 -13  322.51   21.78
  -1   9  13  311.22   21.96
   1   9 -14 1759.46  115.70
   1  -9 -14 1839.04  123.95
  -1   9  14 1867.60  116.08
  -1   9  14 1788.32  121.38
   1  -9 -15   82.59    7.49
   1   9 -15   81.74    7.21
  -1   9  15   79.83    7.27
  -1   9  16   77.98    6.79
   1  -9 -16   81.07    6.93
   1   9 -16   56.50    6.22
   1  -9 -16   77.32    6.62
   1  -9 -17   66.72    5.87
   1  -9 -17   52.52    5.15
  -1   9  17   68.83    5.84
   1   9 -18  142.37   10.53
  -1   9  18  131.72   10.14
   1   9 -18  138.17   10.24
   1  -9 -18  109.59    9.47
   1  -9 -18  133.14   10.18
   1   9 -19   73.17    5.82
   1   9 -19   69.94    5.92
  -1   9  19   67.12    5.66
   1   9 -20  163.45   11.74
  -1   9  20  150.97   11.55
   1   9 -21    1.56    1.20
  -1   9  21    3.78    1.28
  -1   9  22  227.91   15.05
   1  -9 -22  215.49   14.70
   1   9 -22  209.57   15.06
   1   9 -23   28.57    2.52
   1  -9 -23   12.84    1.56
   1   9 -24  801.52   51.20
  -1 -11 -19  270.88   18.38
  -1  11 -19  292.75   18.53
  -1  11 -18   59.19    4.79
   1  11  17  221.27   14.22
  -1  11 -17  219.66   14.12
  -1 -11 -17  182.19   13.53
  -1  11 -16   94.03    7.76
   1  11  16  115.63    8.05
  -1 -11 -16   98.13    7.53
  -1 -11 -15  199.51   14.98
  -1  11 -15  229.09   15.35
   1  11  15  228.15   15.40
  -1  11 -14   55.54    5.44
  -1 -11 -14   62.69    5.55
  -1 -11 -14   60.85    5.45
   1  11  14   71.59    5.81
  -1 -11 -13    2.15    1.46
  -1 -11 -13    0.70    1.30
  -1  11 -13    4.96    1.35
  -1 -11 -12    7.98    1.87
  -1 -11 -12    7.64    1.98
  -1 -11 -11  148.64   11.23
  -1 -11 -11  140.71   11.13
  -1 -11 -10    6.31    1.94
   1  11   9  258.44   18.09
  -1 -11  -9  245.63   18.11
   1  11   8  162.61   12.42
  -1 -11  -8  162.33   12.55
  -1 -11  -7 1433.95   97.81
   1  11   7 1614.69   97.96
   1  11   6  388.17   25.34
  -1 -11  -6  342.16   25.17
  -1  11  -6  361.13   24.61
  -1  11  -5 1201.44   77.35
  -1  11  -5 1219.37   78.29
   1  11   5 1217.90   78.02
  -1 -11  -5 1181.30   78.04
   1  11   4  294.64   21.58
  -1 -11  -4  292.89   21.66
  -1  11  -4  323.32   22.05
  -1  11  -4  316.66   21.08
  -1  11  -3  382.59   27.12
  -1  11  -3  424.64   28.27
  -1 -11  -3  385.62   27.88
   1  11   3  449.96   28.16
  -1 -11  -2   59.33    6.29
  -1  11  -2   71.44    5.92
  -1  11  -2   77.00    6.82
   1  11   2   62.69    6.36
  -1 -11  -1   17.98    3.09
   1  11   1   18.88    3.02
  -1  11  -1   15.96    2.85
  -1  11  -1   16.26    2.38
   1  11   0   77.10    6.12
  -1  11   0   58.51    5.69
  -1  11   0   69.31    6.76
  -1 -11   0   73.13    6.70
   1  11   0   79.96    6.84
  -1  11   1  224.09   16.11
  -1 -11   1  221.19   16.87
  -1  11   1  233.59   17.23
   1  11  -1  256.04   17.25
   1  11  -1  236.94   16.34
   1  11  -2   10.53    2.03
  -1  11   2    9.18    1.73
   1  11  -2   10.16    2.38
  -1  11   2   10.30    2.38
  -1 -11   2   11.05    2.34
  -1  11   3  115.46    9.10
  -1  11   3  112.24    8.62
   1  11  -3  120.35    9.03
  -1 -11   3  110.49    9.38
  -1  11   3  127.91    9.90
   1  11  -3  118.78    9.60
   1 -11  -3  104.68    9.43
  -1  11   4  236.12   15.81
   1  11  -4  221.07   16.24
   1 -11  -4  207.98   16.20
  -1  11   4  224.69   16.39
   1  11  -4  210.36   15.53
  -1  11   5  573.97   38.34
  -1  11   5  615.28   37.73
   1  11  -5  573.30   38.17
   1 -11  -5  529.23   38.16
   1  11  -5  548.61   37.51
  -1  11   6  545.43   33.92
   1 -11  -6  487.92   34.43
   1  11  -6  497.14   33.79
   1  11  -6  482.81   34.23
  -1  11   6  526.47   34.58
  -1  11   7 2018.62  118.92
  -1  11   7 1891.35  119.48
   1  11  -7 1797.93  118.78
   1 -11  -7 1728.71  119.35
   1  11  -8  435.21   30.53
   1 -11  -8  429.57   31.07
  -1  11   8  501.30   30.70
   1  11  -9  179.77   13.39
   1 -11  -9  185.11   13.98
  -1  11   9  185.65   13.32
   1 -11 -10   19.39    3.13
  -1  11  11   13.89    2.47
   1 -11 -11   14.33    2.69
   1 -11 -12   10.33    2.30
  -1  11  12   15.43    2.59
   1 -11 -13  380.51   10.36
   1 -11 -13  391.47   10.30
   1 -11 -14   25.84    2.79
  -1  11  14   31.57    3.07
   1 -11 -15    8.88    1.74
  -1  11  15    9.25    1.86
  -1  11  16   67.80    4.08
   1 -11 -16   66.46    3.67
  -1  11  17  672.77   11.81
   1  11 -17  683.05   11.82
  -1  11  18  214.10    6.26
   1  11 -18  194.02    5.95
   1  11 -19  860.49   55.15
   1  11 -20  312.78   20.85
   1 -11 -20  321.61   20.65
  -1 -13 -13  280.67   18.41
  -1 -13 -12   74.71    5.64
   1  13  10   84.93    6.23
  -1 -13 -10   70.71    5.92
  -1 -13  -9   70.63    6.04
   1  13   9   81.94    6.20
  -1 -13  -9   74.44    5.95
  -1 -13  -8   27.44    2.96
  -1 -13  -8   21.52    2.93
  -1 -13  -7    0.30    1.09
   1  13   7    2.06    1.12
  -1 -13  -7    3.41    1.11
  -1 -13  -6    7.99    1.73
   1  13   6    7.60    1.56
  -1 -13  -6    4.08    1.35
  -1 -13  -5  189.77   13.85
  -1 -13  -5  174.95   13.44
   1  13   5  219.26   13.97
  -1 -13  -4   51.57    5.05
  -1 -13  -4   47.10    4.66
   1  13   3  115.96    8.44
  -1 -13  -3   99.07    8.30
  -1 -13  -3   99.44    8.03
   1  13   2    7.30    1.80
  -1 -13  -2    8.02    1.70
  -1  13  -1 1741.05  104.20
   1  13   1 1660.25  103.96
  -1 -13  -1 1579.49  103.60
   1 -13   1 1549.10  103.57
  -1 -13  -1 1661.35  104.14
   1 -13   0  233.94   16.63
  -1  13   0  266.61   17.18
  -1 -13   0  227.90   16.45
   1  13   0  246.34   16.87
  -1 -13   0  234.45   16.93
   1  13  -1 2125.90  135.48
  -1  13   1 2242.64  135.79
  -1 -13   1 2111.99  135.57
   1 -13  -1 2069.68  135.35
   1  13  -2    4.11    1.41
  -1 -13   2    4.19    1.62
   1  13  -2    0.18    0.34
  -1  13   2    3.24    1.61
   1 -13  -2    3.14    1.45
   1 -13  -3  825.72   54.32
  -1  13   3  903.78   54.77
  -1 -13   3  805.23   54.16
   1 -13  -4    9.41    1.85
  -1  13   4   13.07    2.18
  -1  13   5  151.37   10.95
   1 -13  -5  138.41   10.64
   1 -13  -6  131.43   10.22
  -1  13   6  146.70   10.54
  -1  13   7   57.47    5.33
   1 -13  -7   60.26    5.21
   1 -13  -8   55.98    4.94
   1 -13  -8   52.24    4.96
  -1  13   8   59.43    5.16
  -1  13   9   76.49    6.03
   1 -13  -9   61.33    5.67
   1 -13  -9   74.79    5.94
  -1  13  10   18.48    2.50
   1 -13 -10   22.19    2.52
   1 -13 -11 1439.55   40.83
  -1  13  11 1553.56   41.47
   1 -13 -12    7.00    1.36
   1 -13 -12    6.06    1.27
   1 -13 -13 1665.56  105.40
   1 -13 -14   34.41    2.90
  -2   0 -29    1.51    0.97
  -2   0 -28  387.67   26.01
  -2   0 -27    3.50    1.18
  -2   0 -26   90.52    8.01
  -2   0 -25    2.58    1.66
  -2   0 -24   42.71    5.27
  -2   0 -23    3.46    1.79
  -2   0 -22  849.13   56.23
  -2   0 -22  885.54   57.26
   2   0  22  837.10   65.08
  -2   0 -21    4.56    2.11
  -2   0 -21    0.83    1.29
  -2   0 -20  246.85   17.64
   2   0  20  244.44   24.86
  -2   0 -20  246.09   18.37
  -2   0 -19    2.07    1.54
  -2   0 -19   -2.10    4.25
   2   0  19    2.01    3.71
  -2   0 -19   -0.39    1.08
  -2   0 -18 1513.67   92.41
  -2   0 -18 1374.95   90.81
  -2   0 -18 1472.96   91.68
  -2   0 -18 1356.74   99.57
  -2   0 -17    1.04    1.26
  -2   0 -17    1.80    2.97
  -2   0 -17    0.89    1.22
  -2   0 -17    1.43    0.88
  -2   0 -16  454.75   29.54
  -2   0 -16  465.89   35.90
  -2   0 -16  454.34   29.49
  -2   0 -16  399.43   28.37
  -2   0 -16  439.16   29.00
  -2   0 -16  448.41   29.37
  -2   0 -15    1.40    1.64
  -2   0 -15   -1.49    3.01
  -2   0 -15    0.59    0.85
  -2   0 -15    0.73    1.13
  -2   0 -15    0.70    1.13
  -2   0 -15    1.37    1.06
  -2   0 -14 1369.04   87.29
  -2   0 -14 1390.28   87.36
  -2   0 -14 1337.67   92.38
  -2   0 -14 1322.65   87.33
  -2   0 -14 1443.34   93.28
  -2   0 -13    3.87    1.18
  -2   0 -13    1.20    1.74
  -2   0 -12  420.29   32.23
  -2   0 -12  424.53   28.18
  -2   0 -12  437.60   32.03
  -2   0 -11    2.66    0.89
  -2   0 -11    5.64    1.18
  -2   0 -11    3.83    1.78
  -2   0 -10   19.55    4.00
  -2   0 -10   17.68    2.13
  -2   0 -10   17.94    2.11
  -2   0 -10   14.54    3.52
  -2   0  -9    3.64    0.97
  -2   0  -9    4.50    1.97
  -2   0  -9    2.15    1.47
  -2   0  -8   75.64    7.60
  -2   0  -8   68.36    7.25
  -2   0  -7    2.21    1.52
  -2   0  -7    1.14    1.34
  -2   0  -6    4.93    2.29
  -2   0  -6  528.99   13.55
  -2   0  -5   -0.41    1.49
  -2   0  -4  217.26   15.54
  -2   0  -3    2.11    1.23
  -2   0  -2  118.64    8.88
  -2   0  -1    1.43    1.16
  -2   0   0 2343.72  148.58
  -2   0   1    1.90    0.62
  -2   0   2 1540.23   97.24
   2   0  -3    2.96    0.73
  -2   0   3    3.02    0.81
  -2   0   4    9.70    1.55
   2   0  -4   11.30    1.52
   2   0  -5   -0.24    0.94
   2   0  -6  285.69   19.58
   2   0  -7    1.12    1.27
   2   0  -8  560.17   35.89
   2   0  -8  504.54   35.58
   2   0  -9    5.17    1.76
   2   0  -9   -0.52    1.36
   2   0 -10 2765.19  172.42
   2   0 -10 2627.95  172.36
   2   0 -11    1.34    1.57
   2   0 -11    4.79    1.97
   2   0 -12 4380.89  284.76
   2   0 -12 4569.51  284.82
   2   0 -13    1.76    1.78
   2   0 -14 6298.78  400.39
  -2   0  15    2.19    2.57
   2   0 -16  750.86   50.38
   2   0 -16  807.65   55.52
   2   0 -16  802.74   50.53
  -2   0  16  771.92   55.30
   2   0 -17    1.00    1.07
  -2   0  17    1.34    1.92
   2   0 -17    0.99    0.95
   2   0 -17    2.88    1.00
   2   0 -17    1.34    2.49
  -2   0  18  498.76   38.31
   2   0 -18  480.30   32.27
   2   0 -18  474.16   32.64
   2   0 -18  506.20   32.78
   2   0 -18  538.17   38.86
   2   0 -19    1.87    1.15
   2   0 -19   -1.63    2.69
   2   0 -19   -0.39    1.41
   2   0 -19   -0.39    1.13
  -2   0  19   -3.21    3.75
   2   0 -20  329.80   22.20
   2   0 -20  327.03   29.06
  -2   0  20  329.59   28.71
   2   0 -20  315.35   22.54
  -2   0  21   -1.85    3.42
   2   0 -21    4.51    1.54
   2   0 -21   -1.92    4.76
   2   0 -21   -0.35    1.09
   2   0 -22  112.22    9.11
   2   0 -22  130.86    9.89
  -2   0  22   85.73   13.80
   2   0 -22  118.50   15.34
  -2   0  23   -6.03    5.76
   2   0 -23   -6.42    6.13
   2   0 -23    0.52    1.67
   2   0 -23    5.59    1.72
   2   0 -24 1994.11  122.29
   2   0 -24 1853.11  121.16
   2   0 -24 1948.06  131.50
  -2   0  24 1805.06  129.81
   2   0 -25    4.18    1.64
   2   0 -25    2.65    2.11
   2   0 -26 1610.51  103.81
   2   0 -27    6.76    2.53
   2   0 -28 1233.89   79.81
   2   0 -29    1.50    1.49
   2   0 -30    1.78    1.37
   2   0 -31   -0.81    0.96
  -2   2 -29    0.70    0.90
  -2   2 -28    3.89    1.47
  -2  -2 -28    3.74    1.30
  -2   2 -27   78.11    5.92
  -2  -2 -27   47.80    4.99
  -2   2 -26  189.84   15.11
  -2  -2 -26  218.14   14.97
  -2   2 -25  884.52   55.87
  -2  -2 -25  809.69   55.10
  -2   2 -24  134.58   11.98
  -2  -2 -24  158.85   11.78
  -2   2 -24  141.74   11.24
  -2   2 -23  598.27   40.87
  -2  -2 -23  562.32   41.12
  -2   2 -22  386.62   26.87
  -2   2 -22  440.32   28.17
  -2  -2 -22  378.01   25.79
  -2  -2 -22  397.69   27.31
   2   2  22  390.29   34.90
   2  -2  22  335.91   32.81
  -2   2 -21  217.25   15.96
   2   2  21  211.34   23.18
  -2  -2 -21  216.44   15.12
  -2  -2 -21  201.97   16.15
   2  -2  21  216.91   22.63
  -2   2 -21  239.44   17.13
  -2   2 -20   24.33    3.66
  -2   2 -20   16.83    2.79
  -2  -2 -20   17.54    2.41
  -2  -2 -20   18.70    3.18
   2  -2  20   16.97    6.14
   2   2  20    8.51    5.39
  -2   2 -20   16.89    2.93
  -2   2 -19   12.79    2.84
  -2   2 -19    4.25    1.67
  -2   2 -19    5.12    1.82
  -2  -2 -19   10.63    2.20
   2  -2  19    1.81    3.70
  -2  -2 -19   12.86    2.00
   2   2  19   -2.05    4.18
  -2   2 -18   16.10    2.73
  -2  -2 -18   19.53    2.89
  -2   2 -18   16.92    3.12
  -2   2 -18   19.87    6.41
  -2  -2 -18   14.70    4.92
  -2  -2 -18   18.29    2.54
  -2   2 -18   14.93    2.73
  -2  -2 -17  104.08   13.16
  -2   2 -17  101.43    8.37
  -2  -2 -17   95.51    8.07
  -2   2 -17  120.72    8.84
  -2   2 -17  131.19   15.58
  -2  -2 -17   87.90    8.33
  -2   2 -17  117.34    9.31
  -2  -2 -16    1.90    1.15
  -2  -2 -16    3.20    1.22
  -2   2 -16    3.49    1.53
  -2  -2 -16    3.12    1.41
  -2   2 -16    1.89    3.12
  -2   2 -16    2.44    1.20
  -2  -2 -16    4.71    2.91
  -2   2 -16    0.47    1.51
  -2  -2 -16    0.46    1.37
  -2   2 -15  379.83   24.35
  -2  -2 -15  331.30   24.48
  -2   2 -15  409.69   31.83
  -2   2 -15  385.19   24.87
  -2  -2 -15  338.04   29.12
  -2   2 -15  363.46   24.12
  -2  -2 -15  340.76   24.22
  -2  -2 -15  330.48   23.85
  -2   2 -15  371.56   24.20
  -2   2 -14  327.77   29.24
  -2  -2 -14  355.57   26.29
  -2   2 -14  410.73   26.49
  -2  -2 -14  414.25   31.28
  -2   2 -14  374.34   25.93
  -2   2 -14  382.47   31.94
  -2  -2 -14  405.26   26.12
  -2  -2 -14  394.23   31.76
  -2   2 -14  373.80   26.03
  -2   2 -14  381.75   26.48
  -2  -2 -14  403.40   26.23
  -2   2 -14  421.09   26.12
  -2  -2 -13  100.73   11.70
  -2  -2 -13  100.66    8.16
  -2   2 -13   95.13   10.89
  -2   2 -13  132.65    8.56
  -2   2 -13  136.63   13.77
  -2  -2 -13   85.77    8.26
  -2   2 -13  127.47    8.40
  -2  -2 -13   83.12   11.47
  -2  -2 -12  677.06   46.97
  -2   2 -12  827.63   52.91
  -2  -2 -12  756.31   51.16
  -2  -2 -12  753.75   51.77
  -2  -2 -12  748.55   46.79
  -2   2 -12  725.98   46.67
  -2   2 -12  655.23   49.73
  -2   2 -11  157.35   13.84
  -2   2 -11  170.87   11.22
  -2  -2 -11  146.66   14.11
  -2  -2 -11  139.44   14.36
  -2  -2 -11  152.77   11.43
  -2   2 -11  191.21   15.97
  -2  -2 -11  155.96   11.16
  -2  -2 -10   44.37    6.08
  -2   2 -10   40.31    6.44
  -2  -2 -10   44.85    4.15
  -2   2 -10   51.80    3.96
  -2  -2 -10   39.89    6.20
  -2   2 -10   37.97    5.47
  -2  -2  -9   22.71    2.56
  -2   2  -9   29.41    4.82
  -2  -2  -9   21.47    3.81
  -2   2  -9   27.48    3.96
  -2  -2  -9   22.07    4.10
  -2   2  -9   28.96    2.52
  -2   2  -8  438.46   31.05
  -2  -2  -8  441.88   30.39
  -2   2  -8  447.51   30.00
  -2  -2  -8  382.69   30.40
  -2  -2  -7  160.16   14.27
  -2   2  -7  208.93   15.18
  -2   2  -7  193.61   14.07
  -2  -2  -7  166.83   14.01
  -2  -2  -6  871.02   57.53
  -2  -2  -6  869.32   57.94
  -2   2  -6  856.95   58.01
  -2   2  -6  866.37   57.18
  -2  -2  -6  913.69   57.99
  -2   2  -5  832.04   53.84
  -2  -2  -5  754.72   53.49
  -2   2  -5  853.44   53.11
  -2  -2  -5  808.78   53.33
  -2  -2  -4 1606.93  106.77
  -2  -2  -4 1635.00  106.57
  -2   2  -4 1706.81  107.05
  -2   2  -4 1719.72  106.35
  -2  -2  -3  159.04   11.91
  -2  -2  -3  146.77   11.90
  -2   2  -3  178.62   11.76
  -2   2  -3  171.97   12.34
  -2  -2  -2  434.09   31.01
  -2   2  -2  504.63   30.82
  -2  -2  -1   48.00    4.29
  -2   2  -1   47.80    3.93
  -2  -2   0  343.15   23.81
  -2   2   0  365.69   23.47
  -2  -2   1  274.39   19.08
  -2   2   1  291.23   19.16
   2  -2  -1  291.81   18.99
   2   2  -1  283.04   19.05
  -2   2   1  335.12   19.63
  -2  -2   2  154.71    9.73
  -2   2   2  132.95    9.72
  -2   2   2  145.21   10.24
  -2   2   3  374.11   25.11
  -2  -2   3  406.73   25.06
  -2   2   3  363.75   25.47
   2   2  -3  394.92   25.56
  -2   2   4  601.30   39.97
  -2  -2   4  634.26   39.87
   2   2  -5  212.33   14.27
  -2  -2   5  212.29   14.07
   2  -2  -5  197.39   13.95
  -2   2   5  186.40   14.09
  -2   2   6 1297.61   85.07
   2   2  -6 1247.04   84.96
   2  -2  -6 1347.34   84.82
  -2  -2   6 1404.80   84.94
   2  -2  -7 1948.45  128.69
  -2  -2   7 2257.30  129.03
   2   2  -7 1955.24  128.99
  -2   2   7 1932.81  129.07
   2  -2  -8 1649.26  106.27
   2   2  -8 1665.78  106.69
   2   2  -9 1003.79   65.56
   2  -2  -9  995.95   65.86
   2  -2  -9  984.52   65.03
   2   2 -10 1413.70   92.68
   2  -2 -10 1410.84   93.03
   2  -2 -10 1433.09   92.19
   2  -2 -11   35.26    4.81
   2  -2 -11   25.80    4.71
   2  -2 -12  700.07   50.06
  -2   2  12  722.79   50.15
  -2  -2  12  744.20   49.59
  -2  -2  13   24.11    4.54
  -2   2  13   30.98    5.43
   2  -2 -13   27.05    5.05
  -2   2  14  327.54   26.35
  -2  -2  14  353.12   26.00
   2  -2 -14  317.97   26.23
  -2   2  15   29.48    5.84
   2   2 -15   26.74    5.33
   2  -2 -15   17.18    4.66
  -2  -2  15   23.34    4.79
   2   2 -15   25.54    2.72
   2  -2 -15   17.75    4.22
   2   2 -16   79.86    6.68
  -2  -2  16   81.85    9.85
   2  -2 -16   61.31    8.89
   2  -2 -16   77.15    6.41
   2   2 -16   81.42    6.40
  -2   2  16   71.60   10.20
   2   2 -16   76.77    6.49
   2  -2 -16   72.82    9.94
   2  -2 -17  765.30   57.44
   2  -2 -17  770.21   58.41
   2   2 -17  834.33   52.69
   2   2 -17  802.45   52.85
  -2   2  17  704.36   57.91
   2   2 -17  844.86   53.09
  -2  -2  17  892.97   58.45
   2   2 -17  841.43   59.01
   2  -2 -17  798.78   52.69
   2   2 -18 1470.55   99.01
   2  -2 -18 1428.63   98.60
   2  -2 -18 1447.75   97.62
   2   2 -18 1458.34   91.75
  -2  -2  18 1452.24   97.71
  -2   2  18 1351.47   98.11
   2  -2 -18 1465.64   91.82
   2   2 -18 1382.11   92.02
   2   2 -18 1427.67   91.97
  -2   2  19 1091.36   94.92
  -2  -2  19 1431.89   95.89
   2   2 -19 1509.51   97.88
   2  -2 -19 1208.40   95.72
   2  -2 -19 1382.11   95.79
   2   2 -19 1436.62   89.53
   2   2 -19 1420.07   89.78
   2  -2 -19 1378.22   89.52
   2   2 -19 1459.27   89.96
   2  -2 -20 1181.02   72.86
   2   2 -20 1125.95   72.69
  -2  -2  20 1054.24   78.76
   2   2 -20 1089.98   72.92
   2   2 -20 1111.33   73.11
  -2   2  20 1037.26   79.72
   2  -2 -20 1272.42   80.56
   2   2 -20 1127.81   80.90
   2   2 -21 1493.72   93.52
   2  -2 -21 1483.22   93.10
  -2  -2  21 1523.96  100.49
   2  -2 -21 1525.88  100.90
   2   2 -21 1520.99  102.43
   2   2 -21 1443.70   92.97
  -2   2  21 1191.37   99.53
   2   2 -21 1389.30   93.20
   2  -2 -22   43.37    8.96
  -2  -2  22   44.48    8.89
   2   2 -22   39.70    9.81
   2  -2 -22   46.94    5.25
   2   2 -22   57.34    5.75
  -2   2  22   60.95   10.82
   2   2 -22   55.52    5.49
   2   2 -22   46.29    4.99
   2   2 -22   51.19    5.58
   2   2 -23   -2.29    6.82
   2   2 -23    4.60    1.70
   2  -2 -23    3.79    1.71
  -2  -2  23   -3.62    5.99
   2  -2 -23   -1.95    6.04
   2   2 -23    2.22    1.73
   2  -2 -24  118.03   10.20
   2   2 -24  141.06   10.96
   2   2 -24  119.11    9.90
   2   2 -25  162.55   12.24
   2  -2 -25  154.32   12.52
   2   2 -25  169.66   13.14
   2   2 -26  281.44   19.19
   2  -2 -26  247.17   18.45
   2   2 -26  251.63   18.09
   2  -2 -27   18.26    2.86
   2   2 -27   19.10    3.20
   2   2 -27   12.14    2.16
   2  -2 -28   74.73    6.35
   2   2 -28   65.99    6.51
   2   2 -29  101.22    7.61
   2  -2 -29   79.48    7.01
   2   2 -30  153.65   11.83
   2  -2 -30  181.50   11.83
  -2   4 -27    4.90    1.26
  -2  -4 -27    5.57    1.07
  -2   4 -26   70.54    5.81
  -2  -4 -26   62.55    5.32
  -2   4 -25    8.63    2.21
   2   4  25   11.48    1.95
  -2   4 -25   11.06    2.26
  -2  -4 -25   12.41    2.07
  -2   4 -24   54.48    4.19
   2   4  24   68.94    4.27
  -2   4 -24   58.60    4.88
  -2  -4 -24   54.35    3.95
  -2   4 -23   57.01    5.46
  -2   4 -23   46.23    5.61
  -2  -4 -23   47.07    5.10
  -2  -4 -23   52.51    4.56
  -2   4 -22    2.92    1.89
  -2  -4 -22    4.02    1.35
  -2  -4 -22    6.05    1.81
  -2   4 -22    4.20    1.75
  -2  -4 -21   41.11    4.95
  -2   4 -21   49.62    5.29
  -2   4 -21   42.93    5.10
  -2  -4 -21   49.63    4.80
  -2   4 -20    6.23    2.30
  -2  -4 -20    4.24    1.62
  -2  -4 -20    0.46    1.56
  -2   4 -20    0.50    1.59
  -2   4 -20    0.95    1.47
   2   4  20   -3.54    5.47
   2  -4  20   -1.61    5.33
  -2  -4 -19  458.10   38.01
   2  -4  19  422.15   35.26
   2   4  19  431.66   36.23
  -2   4 -19  454.75   30.85
  -2   4 -19  440.32   30.10
  -2  -4 -19  390.79   29.67
  -2  -4 -19  457.60   29.72
  -2   4 -19  456.22   30.09
   2  -4  18   12.44    4.76
  -2   4 -18   18.68    3.52
   2   4  18   19.05    5.65
  -2   4 -18   14.89    2.91
  -2  -4 -18   26.02    6.91
  -2   4 -18   17.72    2.97
  -2  -4 -18   20.33    3.17
  -2   4 -17  150.62   11.28
  -2   4 -17  156.02   12.03
   2  -4  17  163.70   16.24
  -2  -4 -17  134.23   11.01
  -2  -4 -17  132.13   16.50
   2   4  17  104.78   14.67
  -2   4 -17  141.70   11.18
  -2   4 -16   65.12    5.75
   2  -4  16   53.25    8.88
  -2   4 -16   67.95    6.55
   2   4  16   52.01    9.09
  -2  -4 -16   50.47    5.41
  -2  -4 -16   48.91    9.09
  -2   4 -15  834.31   52.86
  -2  -4 -15  758.78   51.91
  -2  -4 -15  857.61   59.37
  -2   4 -14   11.24    4.97
  -2  -4 -14   13.45    2.48
  -2  -4 -14   13.42    2.23
  -2   4 -14   12.71    2.45
  -2  -4 -14   12.88    2.11
  -2  -4 -14   15.80    4.60
  -2  -4 -14   23.56    5.32
  -2  -4 -13   11.47    3.95
  -2   4 -13   22.50    3.14
  -2   4 -13   21.89    3.49
  -2  -4 -13   17.63    2.77
  -2   4 -13   10.29    4.83
  -2  -4 -13   14.45    2.31
  -2   4 -12   25.50    3.12
  -2  -4 -12   36.00    3.83
  -2   4 -12   26.51    5.78
  -2  -4 -12   41.89    3.90
  -2   4 -12   24.79    2.85
  -2  -4 -12   34.92    5.83
  -2  -4 -12   29.59    6.17
  -2   4 -11 1405.63   92.02
  -2  -4 -11 1250.07   85.64
  -2   4 -11 1382.08   85.21
  -2  -4 -11 1354.55   89.86
  -2  -4 -11 1420.55   91.08
  -2  -4 -10   59.28    6.93
  -2  -4 -10   51.41    6.95
  -2   4 -10   31.83    3.30
  -2  -4 -10   48.33    6.90
  -2   4 -10   35.71    5.09
  -2   4 -10   41.67    6.74
  -2  -4 -10   48.94    4.14
  -2  -4  -9  322.71   26.23
  -2  -4  -9  314.13   25.75
  -2   4  -9  379.95   27.51
  -2   4  -9  356.31   24.65
  -2  -4  -9  320.00   22.55
  -2   4  -9  342.31   22.17
  -2  -4  -9  384.73   26.19
  -2  -4  -8   36.54    5.41
  -2   4  -8   29.01    4.17
  -2   4  -8   31.77    5.82
  -2  -4  -8   37.54    5.32
  -2   4  -7 1402.84   90.67
  -2   4  -7 1462.99   92.93
  -2  -4  -7 1367.50   91.66
  -2  -4  -7 1396.16   92.02
  -2   4  -6    6.26    1.41
  -2  -4  -6    3.13    1.84
  -2  -4  -5  206.47   16.86
  -2   4  -5  246.82   16.33
  -2  -4  -4   19.81    2.77
  -2   4  -4    8.31    1.62
  -2  -4  -3  638.06   42.92
  -2   4  -3  668.73   42.36
  -2  -4  -2   15.37    2.04
  -2   4  -2   15.79    1.69
   2  -4   1 1623.53  117.63
  -2  -4  -1 1992.55  117.93
   2   4   1 1913.27  120.47
  -2   4  -1 2118.33  117.64
   2   4   1 1761.03  117.80
  -2   4   0  696.04   42.63
   2   4   0  574.49   42.43
  -2   4   1 2262.42  144.56
  -2   4   2   46.87    5.16
  -2   4   3 1747.54  110.10
  -2   4   3 1868.61  112.41
  -2  -4   3 1716.26  110.02
  -2  -4   4    2.05    0.73
  -2   4   4    1.60    1.59
  -2   4   4    0.37    0.59
   2   4  -4    1.60    1.33
   2  -4  -4    3.94    0.92
  -2   4   5   11.19    2.51
  -2  -4   5   10.36    1.49
  -2   4   5    7.68    1.46
  -2  -4   6    3.59    1.01
  -2   4   6    2.35    1.09
  -2   4   6    3.55    1.48
  -2   4   7   17.48    2.60
  -2  -4   7   12.50    2.17
  -2   4   8    7.84    2.19
  -2  -4   8    9.34    1.97
  -2  -4   9   74.73    7.24
  -2   4   9   83.60    7.94
  -2  -4  10    1.19    1.64
  -2   4  10    5.11    2.01
   2   4 -11 1078.24   75.85
  -2  -4  11 1305.94   75.58
   2  -4 -11 1130.43   75.03
  -2   4  11 1033.83   75.45
  -2   4  12   35.12    5.82
   2   4 -12   56.55    7.20
  -2  -4  12   58.00    6.44
   2  -4 -12   30.88    6.11
   2  -4 -12   44.00    5.82
   2   4 -13 2528.34  173.91
  -2  -4  13 3052.67  173.66
   2  -4 -13 2706.86  172.92
   2  -4 -13 2724.89  175.35
  -2   4  13 2406.58  173.39
   2  -4 -14    1.92    2.11
   2   4 -14    2.63    1.12
   2  -4 -14    2.97    1.32
  -2   4  14    5.87    3.07
   2  -4 -14    1.40    2.32
   2   4 -14    3.70    2.51
  -2  -4  14    8.86    2.94
   2   4 -15  443.52   28.96
   2  -4 -15  412.29   34.47
   2  -4 -15  439.84   32.66
  -2  -4  15  496.49   33.43
   2   4 -15  415.49   33.82
  -2   4  15  360.78   32.73
   2  -4 -15  434.27   29.21
   2   4 -15  445.59   28.93
   2  -4 -15  420.57   28.51
   2  -4 -16    1.63    1.95
   2  -4 -16    7.41    1.58
   2  -4 -16    3.48    1.48
   2   4 -16   16.89    2.39
   2   4 -16   15.06    4.68
  -2  -4  16    5.95    2.63
   2   4 -16    7.21    1.73
   2  -4 -16    2.34    2.59
  -2   4  16    9.78    3.67
   2   4 -17   14.07    2.30
   2  -4 -17    5.25    3.88
   2  -4 -17   10.15    1.88
   2   4 -17   11.27    2.25
  -2   4  17    3.01    2.25
  -2  -4  17   18.08    4.58
   2  -4 -17    5.13    2.68
   2   4 -17    9.91    3.92
   2  -4 -17   21.20    2.77
   2   4 -18    0.42    1.47
  -2  -4  18    4.15    3.24
   2  -4 -18    1.98    1.31
  -2   4  18    4.80    3.24
   2  -4 -18    3.95    1.60
   2  -4 -18   -1.39    2.58
   2   4 -18    1.80    2.57
   2  -4 -18    1.86    3.08
   2   4 -18    1.27    1.36
   2   4 -18    5.15    1.61
   2   4 -19 1031.66   66.82
   2   4 -19 1148.54   75.49
   2  -4 -19  981.33   66.29
  -2   4  19 1082.18   73.77
   2   4 -19 1014.36   66.80
   2  -4 -19 1000.33   72.12
   2  -4 -19 1027.89   66.27
  -2  -4  19 1186.04   73.29
   2  -4 -19  984.61   74.32
   2   4 -19  995.77   66.88
   2   4 -19 1049.09   66.70
   2  -4 -20   13.23    2.40
   2   4 -20   10.08    2.56
   2  -4 -20   19.08    5.14
   2  -4 -20   12.25    6.13
   2   4 -20    6.98    2.06
   2   4 -20   15.91    2.71
  -2   4  20   12.23    5.25
  -2  -4  20    7.66    3.86
   2   4 -20   10.27    5.68
   2   4 -21   19.33    7.05
   2   4 -21   38.29    4.77
   2  -4 -21   33.16    4.16
   2  -4 -21   27.26    7.12
   2   4 -21   48.16    4.97
  -2  -4  21   58.10    8.74
   2   4 -21   40.46    4.49
   2  -4 -21   38.17    7.64
  -2   4  21   40.82    7.85
  -2  -4  22  113.17   14.37
   2  -4 -22  112.72    9.16
   2  -4 -22  115.74   15.04
   2  -4 -22  118.21    9.69
   2   4 -22  129.36   10.08
   2   4 -22  138.43   10.62
   2   4 -22  136.40   10.41
   2   4 -22   88.13   15.50
  -2   4  22  108.01   14.49
   2   4 -23  147.54   11.97
   2  -4 -23  148.80   11.62
  -2   4  23  145.53   11.59
   2   4 -23  156.45   11.94
   2   4 -23  163.67   12.44
   2   4 -24    5.27    1.86
   2   4 -24    3.83    1.69
   2   4 -24    1.04    1.78
  -2   4  24    1.89    1.22
   2  -4 -24    1.61    1.49
   2  -4 -25 1266.13   86.99
   2   4 -25 1383.04   87.40
   2   4 -25 1458.17   87.93
   2   4 -26    2.65    1.63
   2   4 -26    0.88    1.50
   2  -4 -26    4.09    1.50
   2   4 -27  861.66   51.88
   2  -4 -27  736.97   51.37
   2   4 -27  809.73   51.96
   2  -4 -28    4.03    1.20
   2   4 -28    1.69    1.18
   2   4 -28    3.60    1.31
   2   4 -29   29.87    2.78
  -2   6 -25  459.68   30.49
   2   6  24  146.27    5.33
  -2   6 -24  159.85    6.43
  -2   6 -23  213.14   15.67
  -2  -6 -23  220.45   14.85
   2   6  23  211.39   15.21
  -2  -6 -22   11.03    1.89
   2   6  22    8.27    1.78
   2   6  21  240.85   15.73
  -2  -6 -21  240.44   15.45
   2   6  20   19.09    2.89
  -2  -6 -20   20.89    2.95
  -2  -6 -19   53.48    9.74
   2   6  19   57.98    5.39
  -2   6 -19   39.78    4.87
  -2   6 -18    4.53    1.87
  -2   6 -18    4.39    1.98
  -2  -6 -17   29.91    6.99
  -2  -6 -17   27.17    3.33
  -2   6 -17   25.27    3.61
  -2   6 -17   23.84    3.61
  -2  -6 -16    3.95    1.69
  -2  -6 -16    3.91    3.24
  -2   6 -16    1.39    1.28
  -2   6 -16    0.94    1.52
  -2  -6 -16    2.38    1.32
  -2   6 -15  203.72   15.71
  -2  -6 -15  193.42   21.38
  -2  -6 -15  217.08   15.64
  -2  -6 -15  235.28   16.25
  -2   6 -15  207.61   15.67
  -2  -6 -14  165.16   18.32
  -2  -6 -14  158.16   12.79
  -2   6 -14  179.92   13.05
  -2  -6 -14  179.74   13.35
  -2  -6 -13    5.17    3.23
  -2  -6 -13   10.63    2.39
  -2  -6 -13    6.60    2.06
  -2   6 -13    9.50    2.01
  -2   6 -13    9.06    2.53
  -2  -6 -12  120.49    9.84
  -2   6 -12  113.91    9.30
  -2  -6 -12  131.39   14.61
  -2   6 -12  119.39   10.14
  -2   6 -11  323.76   23.96
  -2  -6 -11  348.25   29.10
  -2   6 -11  354.40   23.39
  -2   6 -10  183.65   14.10
  -2  -6 -10  188.52   18.42
  -2   6 -10  190.40   13.52
  -2   6  -9    1.35    0.91
  -2  -6  -9    3.65    1.55
  -2  -6  -8  549.05   36.32
  -2   6  -8  542.50   35.56
   2   6   7  330.97   25.45
  -2  -6  -7  340.74   22.01
  -2   6  -7  316.40   21.83
  -2   6  -7  294.36   21.65
  -2   6  -6  614.61   40.45
   2   6   6  620.03   43.98
   2   6   5  105.59    8.00
   2   6   5  101.32   10.73
  -2   6  -5  106.79    8.26
  -2   6  -4 1539.62   95.06
  -2   6  -4 1475.01   94.57
   2   6   4 1449.15   94.32
   2   6   4 1491.98   98.35
   2   6   3   12.89    3.51
  -2   6  -3   13.78    2.40
  -2   6  -3   12.79    2.07
   2   6   3   14.94    1.99
   2   6   2  208.73   18.52
   2   6   2  224.54   15.57
  -2   6  -2  224.57   16.12
  -2   6  -2  242.62   15.86
   2   6   1   21.53    2.43
  -2   6  -1   20.51    2.49
  -2   6  -1   19.90    2.78
   2   6   1   26.57    4.76
  -2   6   0   74.38    6.42
  -2   6   0   89.46    6.95
   2   6   0   89.37    6.46
   2   6   0   77.42    8.89
  -2   6   1  875.19   57.66
   2   6  -1  835.96   54.10
   2   6  -2   51.53    4.50
  -2   6   2   71.12    7.57
  -2   6   3  279.42   22.32
   2   6  -3  266.60   19.20
   2   6  -3  318.37   19.55
  -2   6   4  450.47   33.55
   2   6  -4  456.68   30.31
  -2   6   4  474.16   30.49
   2   6  -5  200.75   14.60
  -2   6   5  223.02   14.85
  -2   6   5  225.48   17.97
  -2   6   6 1531.92  100.22
  -2   6   6 1742.86  104.30
   2   6  -6 1573.57  100.21
  -2   6   7 2570.73  165.51
  -2   6   7 2566.98  161.71
   2   6  -7 2537.09  161.68
  -2   6   8  489.62   32.63
  -2   6   8  521.51   36.52
   2   6  -8  491.72   32.69
  -2   6   9  762.28   47.20
   2   6  -9  718.09   46.80
   2   6  -9  683.35   47.12
  -2   6   9  759.60   51.22
  -2   6  10  182.87   17.14
  -2   6  10  187.46   13.92
   2   6 -10  197.09   13.76
   2   6 -10  214.36   16.15
   2  -6 -11   12.10    2.37
   2   6 -11   18.11    2.32
  -2   6  11    7.86    2.90
  -2   6  11   10.38    2.10
   2   6 -11   14.23    3.27
   2  -6 -12  362.90   25.55
  -2   6  12  367.11   25.20
  -2   6  12  340.31   26.55
   2   6 -12  377.25   28.24
  -2   6  12  372.89   29.24
   2   6 -12  391.04   25.08
  -2   6  13   81.10    6.85
   2   6 -13   90.86    9.92
   2   6 -13   85.17    6.84
   2  -6 -13   89.30    7.42
  -2   6  13   64.87    9.14
  -2   6  13   65.34    7.91
   2  -6 -13   50.59    9.70
   2  -6 -14  384.16   32.40
   2   6 -14  359.81   29.42
  -2   6  14  368.23   29.87
  -2   6  14  356.67   25.63
   2   6 -14  404.13   25.70
   2  -6 -14  369.19   26.07
   2  -6 -15    4.36    1.89
   2   6 -15    1.99    1.25
  -2   6  15    3.37    1.53
  -2   6  15    3.96    2.89
   2  -6 -15    5.62    4.65
  -2   6  16    8.15    3.39
   2  -6 -16    3.95    2.85
  -2   6  16    7.87    2.02
   2  -6 -16    5.36    1.93
   2   6 -16    5.49    1.82
   2  -6 -17 1512.71   93.14
  -2   6  17 1399.32   97.61
   2  -6 -17 1529.95  101.98
   2  -6 -17 1447.92   92.46
  -2   6  17 1366.70   92.71
   2  -6 -18   90.53   13.13
  -2   6  18   81.15    7.40
   2  -6 -18   83.35    7.62
   2  -6 -19  710.45   55.45
   2  -6 -19  778.21   47.22
   2   6 -19  640.74   46.48
  -2   6  19  722.12   47.00
   2   6 -19  720.46   47.23
   2  -6 -20  402.26   35.05
  -2   6  20  418.65   26.92
   2   6 -20  339.23   26.27
   2   6 -20  425.43   27.27
   2   6 -21 1180.10   72.94
   2   6 -21  981.35   72.09
  -2   6  21 1200.45   72.69
   2   6 -21 1173.22   73.02
   2   6 -22   51.91    5.30
  -2   6  22   47.50    4.87
   2   6 -22   40.12    4.70
   2   6 -22   50.88    5.27
   2   6 -23    6.07    2.02
  -2   6  23    6.30    1.78
   2  -6 -23    7.41    1.59
   2   6 -23    3.53    1.61
   2   6 -23    2.36    1.04
   2   6 -24   24.19    3.03
   2   6 -24   20.06    2.89
  -2   6  24   20.30    2.38
   2   6 -25   51.89    5.18
  -2   6  25   57.94    4.75
   2   6 -25   43.14    4.85
   2   6 -26  285.68   19.71
   2   6 -27    2.97    1.28
  -2  -8 -23    1.69    0.70
  -2   8 -23    4.17    1.25
  -2   8 -22   33.40    3.47
   2   8  22   33.30    3.25
  -2  -8 -22   24.82    2.79
  -2   8 -21   22.22    3.16
  -2  -8 -21   26.07    2.92
  -2   8 -21   22.07    3.12
  -2   8 -20  237.25   15.84
  -2   8 -20  190.52   15.34
  -2  -8 -20  210.90   15.08
   2   8  20  225.35   15.39
  -2   8 -19   34.57    3.54
  -2   8 -19   30.83    3.26
  -2  -8 -18  714.14   48.73
   2   8  18  815.00   49.57
  -2   8 -18  813.78   49.90
  -2   8 -18  699.66   49.46
  -2  -8 -17    8.50    1.88
  -2   8 -17    5.04    1.85
   2   8  17    3.34    1.54
  -2   8 -17    5.68    1.83
  -2   8 -16  148.45   12.60
  -2   8 -16  164.41   12.92
  -2  -8 -16  177.67   12.63
  -2  -8 -16  176.50   13.00
   2   8  16  165.08   12.67
  -2  -8 -15    6.88    1.97
  -2   8 -15    2.91    1.68
   2   8  15    6.06    3.08
   2   8  15    3.93    1.56
  -2   8 -15    3.72    1.74
  -2  -8 -15    6.30    2.25
  -2  -8 -15    5.54    3.42
  -2  -8 -14   38.83    8.19
  -2   8 -14   44.16    5.04
   2   8  14   44.50    7.86
  -2  -8 -14   48.80    5.13
   2   8  14   51.22    5.11
   2   8  13   50.73    8.35
   2   8  13   53.43    5.12
  -2  -8 -13   52.83    5.23
  -2  -8 -13   40.10    8.34
  -2   8 -13   36.00    4.61
  -2   8 -12   42.51    4.85
  -2  -8 -12   53.52    9.20
   2   8  12   44.29    7.92
   2   8  12   50.87    5.03
  -2   8 -11   53.00    5.02
  -2  -8 -11   36.73    4.83
   2   8  11   33.18    6.96
   2   8  11   49.33    4.86
  -2  -8 -11   52.10    8.84
  -2   8 -10  110.11    9.26
  -2  -8 -10   96.40    8.80
  -2  -8 -10   87.69   12.47
  -2   8 -10  106.85    8.54
   2   8  10   96.40   12.34
  -2   8  -9   51.89    4.98
  -2  -8  -9   51.63    5.52
  -2   8  -9   54.10    5.10
  -2   8  -9   46.77    5.49
   2   8   9   50.91    8.26
   2   8   8  188.18   17.88
  -2   8  -8  183.75   13.06
  -2   8  -8  184.97   13.14
  -2  -8  -8  190.57   13.76
  -2   8  -8  150.24   13.52
   2   8   7    0.38    1.14
  -2   8  -7    6.11    1.47
  -2  -8  -7    6.31    2.02
  -2   8  -7    4.00    1.34
  -2   8  -7    1.00    1.50
   2   8   7    4.19    2.84
  -2   8  -7    3.91    1.58
   2   8   6  190.72   17.59
  -2  -8  -6  175.59   13.22
  -2   8  -6  152.61   13.09
  -2   8  -6  176.45   13.47
  -2   8  -6  178.54   12.57
   2   8   6  180.18   12.92
   2   8   5   27.84    3.21
  -2  -8  -5   19.00    3.17
   2   8   5   29.75    6.01
  -2   8  -5   21.07    3.17
  -2   8  -5   27.85    3.01
  -2   8  -5   25.51    3.49
  -2   8  -4   10.51    2.23
   2   8   4    8.00    3.16
  -2   8  -4   11.62    2.33
   2   8   4    3.83    1.44
  -2   8  -4   10.83    1.77
  -2   8  -3    9.11    2.07
  -2   8  -3    8.80    1.59
   2   8   3    5.50    1.53
   2   8   3    4.82    1.48
  -2   8  -3    9.84    2.15
   2   8   3    3.96    2.47
  -2   8  -3    4.58    1.59
   2   8   2    4.21    1.42
  -2   8  -2    3.19    1.37
  -2   8  -2    4.03    1.47
   2   8   2    1.31    2.17
  -2   8  -2    1.59    1.37
  -2   8  -2    5.66    1.26
   2   8   2    2.03    1.23
  -2   8  -1    7.07    1.85
  -2   8  -1    7.99    1.93
   2   8   1    8.58    1.77
  -2   8  -1   11.04    2.15
   2   8   1    9.99    1.91
   2   8   0  596.59   48.93
   2   8   0  691.09   44.47
   2   8   0  666.48   44.64
  -2   8   0  642.24   44.87
  -2   8   0  690.75   44.89
  -2   8   0  767.59   45.27
   2   8  -1   27.46    5.65
  -2   8   1   28.13    3.33
  -2   8   1   22.30    3.10
   2   8  -1   27.19    3.18
   2   8  -1   27.77    2.96
  -2   8   1   25.33    3.20
  -2   8   2  419.88   26.57
   2   8  -2  362.32   26.01
  -2   8   2  358.44   26.19
   2   8  -2  409.98   25.91
  -2   8   3   62.87    9.29
   2   8  -3   81.90    6.63
  -2   8   3   75.25    6.70
  -2   8   4   11.84    3.93
   2   8  -4   20.79    2.74
   2   8  -5   24.39    3.10
   2   8  -5   21.80    2.64
  -2   8   5   31.83    6.08
   2   8  -6   47.83    5.04
  -2   8   6   58.96    8.42
   2   8  -6   50.15    4.71
  -2   8   6   60.04    5.38
   2   8  -7   17.61    2.88
   2   8  -7   21.51    2.82
  -2   8   7   14.94    4.25
   2   8  -7   24.67    2.84
  -2   8   7   21.47    2.99
  -2   8   8  500.40   37.90
   2   8  -8  486.81   32.47
   2   8  -8  489.52   32.38
  -2   8   8  514.50   32.97
   2   8  -8  460.92   32.78
  -2   8   9   14.92    2.43
  -2   8   9   11.21    3.91
   2   8  -9   11.48    2.36
   2   8  -9   10.28    1.91
   2   8  -9   10.93    2.13
  -2   8  10  124.58    9.95
   2   8 -10  128.87    9.77
   2   8 -10  120.85    9.63
  -2   8  10  118.20   13.76
   2   8 -11   14.44    2.32
   2   8 -11   12.32    2.33
  -2   8  11    8.28    2.06
   2   8 -12 1385.34   91.67
   2   8 -12 1456.25   91.78
  -2   8  12 1367.56   97.11
  -2   8  12 1466.19   92.12
   2   8 -13   38.16    4.45
  -2   8  13   47.19    7.85
  -2   8  13   41.06    4.69
   2   8 -13   47.83    4.72
   2  -8 -13   36.33    4.78
  -2   8  14 3138.60  208.01
   2   8 -14 3089.59  202.35
   2  -8 -14 3224.27  202.96
  -2   8  14 3294.00  202.67
   2   8 -15   13.40    2.50
   2  -8 -15   13.97    2.89
  -2   8  15   19.06    4.77
  -2   8  15   10.69    2.45
  -2   8  16  376.39   26.33
   2  -8 -16  381.06   26.54
   2   8 -16  381.01   26.24
   2   8 -17    1.37    1.31
  -2   8  17    1.83    1.57
   2  -8 -17    2.05    1.36
   2  -8 -17    3.89    1.85
   2  -8 -18  201.40   15.25
  -2   8  18  229.93   15.97
   2  -8 -18  207.60   15.78
   2   8 -18  221.38   15.88
   2  -8 -19   46.70    4.58
   2  -8 -19   35.09    3.71
  -2   8  19   41.21    4.29
   2   8 -20  426.27   30.91
   2   8 -20  465.23   31.23
  -2   8  20  481.23   30.97
  -2   8  21    2.19    1.32
   2   8 -21    2.19    1.54
   2   8 -21    2.43    1.35
   2   8 -22   27.92    3.64
  -2   8  22   24.99    3.13
   2   8 -22   28.08    3.48
  -2   8  23   10.28    1.81
   2   8 -23   11.94    2.21
   2  -8 -23    7.29    1.52
   2   8 -23   13.76    2.22
   2   8 -24 1407.75   17.78
   2   8 -24 1456.67   17.42
  -2 -10 -21   64.29    4.64
  -2 -10 -20   43.95    3.62
  -2  10 -19   66.95    5.42
   2  10  19   74.31    5.77
  -2  10 -19   71.00    5.78
  -2 -10 -19   68.23    5.46
   2  10  18   21.96    2.31
  -2  10 -18   22.33    2.14
  -2  10 -18   21.50    2.44
  -2 -10 -17   10.81    1.68
  -2  10 -17   10.72    1.85
   2  10  17    9.75    1.88
  -2  10 -17    9.40    1.91
  -2 -10 -16   39.10    3.67
  -2  10 -16   33.67    3.57
   2  10  16   43.31    4.05
  -2 -10 -15   -0.67    1.32
  -2  10 -15    0.32    1.03
   2  10  15    1.84    1.14
  -2  10 -15    0.78    1.33
  -2  10 -14   14.09    2.30
  -2 -10 -14   13.54    2.51
  -2  10 -14   17.13    2.69
   2  10  14   12.41    2.44
  -2 -10 -14   20.14    2.82
  -2 -10 -13    3.79    1.73
  -2  10 -13    4.14    1.48
  -2 -10 -13    4.87    1.89
  -2  10 -12    4.88    1.47
  -2 -10 -12    3.47    1.74
  -2 -10 -12    4.84    1.77
  -2 -10 -11    7.29    2.18
  -2  10 -11    8.64    1.82
  -2 -10 -10    3.26    3.02
   2  10  10    4.64    3.14
  -2 -10 -10    4.20    1.83
  -2 -10  -9   13.11    4.33
   2  10   9   12.19    2.33
   2  10   9    3.15    2.67
  -2 -10  -9   12.37    2.65
  -2 -10  -8  216.21   16.13
   2  10   8  186.65   20.14
   2  10   8  227.61   16.01
  -2  10  -7    5.86    1.58
   2  10   7    9.67    4.22
  -2 -10  -7    2.90    1.72
   2  10   7    5.67    1.76
  -2  10  -6   26.19    3.29
   2  10   6   27.81    3.58
  -2 -10  -6   34.19    4.12
  -2  10  -6   28.78    4.00
  -2 -10  -5    3.35    1.88
   2  10   5    3.26    3.32
   2  10   5    2.16    1.55
  -2  10  -5    6.98    1.61
  -2 -10  -4  748.90   50.75
   2  10   4  807.34   50.72
  -2  10  -4  747.00   49.97
   2  10   4  799.68   57.13
  -2  10  -4  771.32   51.09
  -2  10  -3   55.56    6.33
  -2  10  -3   63.49    5.73
   2  10   3   70.75   10.28
   2  10   3   76.69    6.44
  -2 -10  -3   65.82    6.43
   2  10   2    5.18    1.71
  -2  10  -2    5.18    1.85
  -2 -10  -2    6.52    2.06
  -2  10  -2    4.78    1.46
   2  10   1  274.21   18.35
  -2  10  -1  235.48   17.39
  -2  10  -1  267.51   18.66
  -2 -10  -1  247.50   18.27
  -2  10   0   32.63    4.61
  -2  10   0   50.63    4.79
  -2 -10   0   40.37    4.68
   2  10   0   45.29    4.71
  -2  10   0   38.40    3.98
  -2  10   1  282.43   21.73
   2  10  -1  320.10   21.65
  -2  10   1  340.35   21.68
  -2  10   1  292.16   20.72
  -2  10   2  187.62   12.90
  -2  10   2  162.41   11.97
  -2  10   2  167.77   13.03
   2  10  -2  155.24   12.61
   2  10  -3  111.13    9.15
  -2  10   3  105.78    9.29
  -2  10   3  114.96    9.17
   2  10  -4   70.62    6.07
  -2  10   4   70.46    6.41
   2  10  -4   70.41    6.41
  -2  10   4   56.12    6.26
  -2  10   5  267.55   18.12
   2  10  -5  237.18   17.51
   2  10  -5  246.85   17.97
   2  10  -6 1102.38   75.27
  -2  10   6 1274.67   76.01
   2  10  -6 1157.21   75.80
   2  10  -7  581.40   41.38
   2  10  -7  623.49   41.85
  -2  10   7  697.80   42.10
   2 -10  -8  169.21   14.01
  -2  10   8  196.16   14.00
   2  10  -8  185.91   13.63
   2 -10  -9   85.48    7.84
  -2  10   9   86.73    7.71
   2  10  -9   90.88    7.17
  -2  10   9   62.62   10.40
   2  10  -9   79.87    7.29
  -2  10   9   93.61    7.80
   2  10 -10  114.92    8.69
   2 -10 -10  103.56    9.23
   2  10 -10  122.19    9.15
  -2  10  10  106.36    9.17
   2  10 -11   40.91    4.13
  -2  10  11   34.24    4.44
   2  10 -11   41.75    4.43
  -2  10  11   35.53    7.06
   2 -10 -11   36.25    4.66
   2 -10 -12  848.16   63.27
  -2  10  12  894.92   56.23
   2  10 -12  819.81   55.41
   2 -10 -12  863.95   56.30
  -2  10  13   97.15    8.38
   2  10 -13   98.38    8.00
   2  10 -14  108.56    9.37
  -2  10  14  144.36   10.25
   2 -10 -15   53.29    5.22
   2 -10 -15   46.63    4.88
   2  10 -15   46.20    4.70
  -2  10  15   47.21    4.99
  -2  10  16    5.62    1.67
   2  10 -16    2.40    1.18
   2 -10 -16    1.62    1.26
   2 -10 -16    2.15    1.43
   2 -10 -17  252.17   18.43
   2 -10 -17  237.17   18.06
   2  10 -17  287.62   18.44
  -2  10  17  286.28   18.72
   2  10 -18  236.64   17.09
  -2  10  18  263.77   17.50
   2 -10 -18  263.50   17.42
   2 -10 -18  239.60   16.88
   2  10 -18  238.86   17.47
   2  10 -19  516.63   11.21
  -2  10  19  543.69   10.98
   2  10 -19  521.91   10.20
  -2  10  20  409.09   24.53
   2  10 -20  339.96   24.13
   2  10 -20  351.96   24.47
   2  10 -21  273.52   18.56
   2  10 -21  272.09   18.28
   2 -10 -22    8.01    1.11
   2  10 -22    5.90    1.17
  -2 -12 -16    7.44    1.13
  -2 -12 -15    1.06    0.62
  -2  12 -14    0.17    0.37
  -2 -12 -14    0.78    0.76
  -2 -12 -13   30.53    2.42
   2  12  13   33.49    2.69
  -2  12 -12    0.66    0.78
  -2 -12 -12    1.35    1.02
   2  12  12    1.71    1.00
   2  12  11  104.16    7.74
  -2 -12 -11   97.86    7.60
  -2 -12 -11   89.06    7.45
  -2  12 -11   94.91    7.29
  -2  12 -10    2.59    1.06
   2  12  10    1.94    1.14
  -2 -12 -10    2.17    1.27
  -2 -12  -9    5.25    1.57
  -2 -12  -9    4.26    1.64
   2  12   9    6.11    1.64
  -2 -12  -8   34.02    3.78
  -2 -12  -8   31.93    3.66
   2  12   8   30.52    3.65
   2  12   7   21.59    3.06
  -2 -12  -7   22.16    3.03
  -2 -12  -7   27.15    3.52
   2  12   6   12.82    2.22
  -2 -12  -6    7.75    1.93
   2  12   5   27.42    3.40
  -2 -12  -5   23.81    3.25
  -2 -12  -4   38.06    4.09
   2  12   4   33.38    3.31
   2  12   4   39.30    4.15
  -2 -12  -3   23.70    3.33
  -2  12  -3   23.92    3.43
   2  12   3   24.33    2.62
   2  12   3   22.24    3.19
  -2  12  -2    8.84    2.13
   2  12   2    7.62    1.85
   2  12   2    4.00    1.20
  -2 -12  -2    3.90    1.65
  -2 -12  -1  642.16   43.84
   2  12   1  692.69   44.11
  -2  12  -1  701.13   44.52
   2  12   1  651.16   43.20
  -2 -12   0   82.98    7.02
  -2  12   0   80.63    7.40
   2  12   0   86.61    7.19
   2 -12   0   74.58    7.06
   2  12   0   80.08    6.46
  -2  12   1  423.57   27.88
   2 -12  -1  376.76   27.38
   2  12  -1  382.52   26.66
  -2 -12   1  413.47   27.29
   2  12  -1  430.22   27.53
   2  12  -2   25.35    3.35
  -2  12   2   26.24    3.53
   2  12  -2   23.09    2.85
   2 -12  -2   29.73    3.67
   2 -12  -3  371.33   26.46
   2  12  -3  410.21   26.43
   2  12  -3  387.22   25.79
  -2  12   3  373.24   26.66
   2  12  -4    3.56    1.41
   2 -12  -4    7.32    1.96
  -2  12   4    6.39    1.90
   2  12  -4    1.52    1.20
   2 -12  -5  166.77   12.94
  -2  12   5  179.77   13.23
   2  12  -5  167.98   12.65
   2  12  -5  172.36   12.35
   2 -12  -6    3.80    1.96
   2  12  -6    2.73    1.17
  -2  12   6    7.03    1.94
   2  12  -7  382.06   27.36
  -2  12   7  463.88   28.52
   2 -12  -7  413.64   28.11
   2 -12  -8  101.22    8.71
   2  12  -8  110.72    8.30
   2 -12  -9  428.20   29.00
   2 -12 -10    0.37    1.35
   2 -12 -11   27.88    3.40
  -2  12  12    0.35    1.07
   2 -12 -12    0.66    1.37
   2 -12 -12    1.32    1.28
   2 -12 -13  758.29   50.67
   2 -12 -13  770.27   50.75
  -2  12  13  825.52   50.98
  -2  12  14   38.43    3.81
   2 -12 -14   31.57    3.42
   2  12 -14   35.30    3.54
   2 -12 -14   36.43    3.63
  -2  12  15  142.24   10.07
   2 -12 -15  127.73    9.70
   2  12 -15  141.03    9.86
   2 -12 -16   27.79    2.73
   2  12 -16   32.45    2.99
   2  12 -17   72.05    5.47
  -2 -14  -9   65.45    4.77
  -2 -14  -8    5.86    1.01
  -2 -14  -7    1.45    0.72
  -2 -14  -6   28.51    2.71
  -2 -14  -5   14.09    1.82
  -2 -14  -4   27.88    2.74
  -2 -14  -3    0.80    0.83
  -2 -14  -2    1.00    0.80
  -2 -14  -1   32.98    3.08
  -2 -14   0   23.03    2.39
   2 -14   0   23.56    2.46
   2 -14  -1  395.33   24.25
  -2 -14   1  347.91   23.85
   2 -14  -2   17.37    1.97
   2 -14  -2   21.46    2.32
   2 -14  -3   30.73    3.15
   2 -14  -3   34.17    3.02
   2 -14  -4   12.18    1.89
   2 -14  -4   15.21    1.78
   2 -14  -5   15.91    2.10
   2 -14  -5   19.96    2.04
   2 -14  -6   78.21    6.25
   2 -14  -6   96.82    6.64
   2 -14  -7  322.50   21.65
   2 -14  -7  332.17   21.48
   2 -14  -8  116.38    7.92
   2 -14  -8  103.34    7.65
   2 -14  -9   35.28    2.95
   2 -14  -9   29.44    2.71
   2 -14 -10   32.13    2.79
  -3  -1 -28  162.09   11.44
  -3  -1 -27    7.87    1.87
  -3  -1 -26  233.62   16.75
  -3  -1 -25    0.46    1.60
  -3  -1 -24  457.84   31.43
  -3  -1 -23   23.81    3.77
  -3  -1 -22  232.69   17.88
  -3   1 -22  244.28   17.37
  -3   1 -21    4.46    1.69
   3   1  21    2.24    2.62
  -3  -1 -21    1.30    0.81
   3  -1  21    4.20    4.26
  -3  -1 -21    2.81    1.92
  -3   1 -20  101.98    8.96
   3   1  20  102.36   15.02
  -3  -1 -20  117.98    9.68
  -3  -1 -20  116.81    8.35
  -3  -1 -19  185.81   15.01
  -3   1 -19  210.13   14.80
  -3  -1 -19  188.93   14.45
  -3  -1 -19  202.60   13.98
  -3  -1 -18  674.93   41.74
  -3  -1 -18  638.41   40.42
  -3  -1 -18  589.07   40.79
  -3   1 -18  581.83   40.89
  -3  -1 -17   69.61    6.41
  -3   1 -17   70.56    6.08
  -3   1 -17   64.24    5.23
  -3  -1 -17   54.58    9.81
  -3  -1 -17   71.26    6.68
  -3  -1 -17   64.59    5.54
  -3   1 -17   51.93    5.77
  -3  -1 -17   68.15    5.94
  -3   1 -16   76.35    6.52
  -3   1 -16   78.46    6.39
  -3   1 -16   64.65    5.56
  -3  -1 -16   76.84    6.76
  -3  -1 -16   71.17   10.80
  -3  -1 -16   62.80    5.83
  -3  -1 -16   80.86    6.39
  -3  -1 -16   69.32    6.68
  -3  -1 -15  307.88   29.66
  -3  -1 -15  362.28   24.48
  -3  -1 -15  336.15   23.74
  -3  -1 -15  381.86   24.79
  -3   1 -15  340.99   23.40
  -3  -1 -15  396.23   24.24
  -3   1 -15  351.35   24.25
  -3   1 -15  344.21   24.04
  -3  -1 -15  413.04   31.14
  -3  -1 -14  116.68    9.16
  -3  -1 -14  134.60   14.47
  -3   1 -14  138.02    9.70
  -3  -1 -14  128.23    9.74
  -3   1 -14  120.97    9.39
  -3  -1 -14  157.53   15.05
  -3  -1 -14  123.73    9.84
  -3  -1 -14  116.82    9.31
  -3  -1 -13  123.05    9.58
  -3  -1 -13  120.41    9.81
  -3  -1 -13  116.53    9.60
  -3  -1 -13  149.86   14.08
  -3   1 -13  139.98    9.72
  -3  -1 -13   99.71   12.89
  -3  -1 -13  142.48   14.17
  -3   1 -13  142.26   10.09
  -3  -1 -12  598.92   39.01
  -3  -1 -12  579.53   39.23
  -3  -1 -12  626.62   43.51
  -3  -1 -12  601.79   43.96
  -3  -1 -12  628.19   43.95
  -3  -1 -11   45.25    6.60
  -3   1 -11   40.83    4.07
  -3   1 -11   47.94    4.19
  -3  -1 -11   36.79    6.45
  -3  -1 -11   50.60    7.09
  -3  -1 -11   49.72    4.24
  -3  -1 -11   51.20    4.46
  -3   1 -10  111.55    8.77
  -3  -1 -10  125.34    8.88
  -3  -1 -10  118.17   11.58
  -3   1 -10  129.36    8.97
  -3  -1 -10  125.64    9.11
  -3  -1 -10  124.24   12.10
  -3  -1 -10  118.99   12.06
  -3  -1  -9    5.86    2.64
  -3  -1  -9   11.61    3.06
  -3  -1  -9   12.53    3.58
  -3  -1  -9   12.42    1.82
  -3  -1  -9   11.49    1.69
  -3   1  -9   19.23    2.07
  -3   1  -9   18.62    1.98
  -3  -1  -8   57.01    6.68
  -3  -1  -8   61.96    6.58
  -3  -1  -8   45.25    6.40
  -3  -1  -7  157.96   13.26
  -3  -1  -7  162.18   13.06
  -3  -1  -7  158.39   13.43
  -3  -1  -6   26.94    4.00
  -3  -1  -6   31.16    4.15
  -3  -1  -6   27.69    3.86
  -3  -1  -5  109.80    9.20
  -3  -1  -5  110.28    9.47
  -3  -1  -5  119.22    9.88
  -3  -1  -4   19.89    3.24
  -3  -1  -4   16.03    2.93
  -3  -1  -4   23.41    3.06
  -3  -1  -3  220.74   14.36
  -3  -1  -3  182.55   14.55
  -3  -1  -3  197.29   14.89
  -3  -1  -2    7.30    2.19
  -3  -1  -2   11.18    1.75
  -3  -1  -1  114.86    9.50
  -3  -1   0  265.85   19.12
  -3  -1   1  469.36   30.72
   3  -1  -2  420.98   28.40
  -3  -1   2  445.07   28.21
   3   1  -3   64.48    4.84
  -3   1   3   71.59    4.75
  -3  -1   3   63.13    5.10
  -3  -1   4  199.63   13.68
  -3  -1   5  582.29   37.96
  -3  -1   6   13.80    2.19
   3  -1  -7  294.49   20.40
   3  -1  -7  279.89   20.44
  -3  -1   7  309.13   20.58
   3  -1  -8  269.74   20.11
  -3  -1   8  305.49   20.50
   3  -1  -8  290.47   20.45
   3  -1  -9   51.26    5.70
   3  -1  -9   54.81    5.69
  -3  -1   9   59.04    5.95
   3  -1 -10    8.49    2.42
  -3  -1  10    9.39    2.25
   3  -1 -10   10.02    2.33
  -3  -1  11   36.56    4.83
   3  -1 -11   30.84    4.42
   3  -1 -11   33.03    4.78
   3  -1 -12 1406.44   94.02
  -3  -1  12 1456.55   94.49
   3  -1 -12 1459.11   94.63
   3  -1 -13  514.13   37.62
  -3  -1  13  611.84   38.55
   3  -1 -13  490.28   37.83
   3  -1 -14  947.82   65.97
   3  -1 -14  990.09   65.69
  -3  -1  14  968.13   65.80
  -3  -1  15   23.65    4.99
   3  -1 -15   46.81    6.55
   3   1 -16  203.47   14.23
   3  -1 -16  181.24   17.78
   3  -1 -16  196.36   14.06
  -3  -1  16  219.02   18.28
   3   1 -17   79.09    6.38
   3  -1 -17   70.06    9.49
   3   1 -17   91.67    6.92
   3  -1 -17   72.19    6.47
  -3  -1  17   86.09   10.23
   3  -1 -17   69.37    9.83
   3   1 -17   81.83    6.64
   3   1 -18  272.12   20.27
   3   1 -18  301.73   20.15
   3  -1 -18  320.52   25.69
  -3  -1  18  288.15   25.13
   3  -1 -18  310.58   20.48
   3   1 -19  484.39   31.30
   3  -1 -19  479.18   31.56
   3   1 -19  454.91   31.50
  -3  -1  19  462.30   36.91
   3  -1 -19  445.84   36.73
   3  -1 -20  968.32   71.24
   3   1 -20  989.58   64.53
   3   1 -20  970.97   64.86
  -3  -1  20  934.30   70.87
   3  -1 -20 1067.64   64.97
   3   1 -21   14.39    2.56
   3  -1 -21    8.85    3.96
   3   1 -21   13.67    2.42
   3  -1 -21   14.74    2.72
  -3  -1  21   13.68    5.17
  -3  -1  22  234.46   22.63
   3  -1 -22  233.60   16.51
   3   1 -22  216.11   16.07
   3  -1 -22  224.76   22.82
   3  -1 -23   55.54   10.54
   3   1 -23   67.56    6.03
  -3   1  23   52.56   10.03
  -3  -1  23   59.78   10.37
   3  -1 -23   71.22    6.44
   3  -1 -24  298.42   28.15
   3   1 -24  295.76   20.50
   3   1 -24  323.38   29.64
  -3  -1  24  281.89   27.24
  -3   1  24  267.95   27.18
   3  -1 -24  293.34   21.04
   3   1 -25  223.37   15.94
   3  -1 -25  220.66   16.52
   3   1 -26  757.57   52.04
   3  -1 -26  871.60   53.11
   3   1 -27  128.56    9.64
   3  -1 -27  124.14   10.24
   3  -1 -28   58.99    5.74
   3  -1 -29    4.81    1.62
   3  -1 -30  119.60    9.12
   3  -1 -31    5.47    1.30
  -3  -3 -27   33.15    3.24
  -3   3 -27   39.02    3.67
  -3  -3 -26   14.61    2.18
  -3   3 -26   11.27    2.23
  -3   3 -25  533.73   32.15
  -3  -3 -25  429.30   31.16
  -3   3 -24  255.22   18.47
  -3  -3 -24  249.12   17.79
  -3   3 -24  246.73   17.80
  -3  -3 -23  238.90   16.24
  -3   3 -23  259.42   18.26
  -3   3 -23  247.74   17.39
  -3  -3 -23  215.50   17.10
  -3  -3 -22   55.52    4.67
  -3  -3 -22   48.42    5.38
  -3   3 -22   41.93    5.63
  -3   3 -22   46.22    5.18
  -3  -3 -21    4.52    1.50
  -3   3 -21   11.09    3.02
   3   3  21    9.85    4.32
   3  -3  21    3.52    2.93
  -3   3 -21    5.19    1.82
  -3  -3 -21    5.98    2.01
  -3   3 -20  109.79    9.53
   3  -3  20   97.93   13.34
  -3  -3 -20   98.82    8.59
  -3  -3 -20   91.43    7.80
   3   3  20   70.26   12.69
  -3   3 -20  105.77    8.76
  -3   3 -20   96.08    8.40
  -3   3 -19  289.02   20.43
   3   3  19  223.62   25.20
   3  -3  19  235.88   24.51
  -3  -3 -19  269.74   19.43
  -3   3 -19  265.46   19.36
  -3  -3 -19  265.79   18.77
  -3   3 -19  275.77   19.32
  -3   3 -18   63.28    6.35
  -3   3 -18   54.78    6.66
   3   3  18   56.38   10.88
  -3  -3 -18   82.45    6.79
  -3  -3 -18   77.91    6.32
  -3   3 -18   66.20    6.40
   3  -3  18   46.04    9.33
  -3   3 -17  769.39   50.49
  -3  -3 -17  850.49   58.88
  -3  -3 -17  711.34   50.48
  -3   3 -17  793.22   51.52
  -3  -3 -17  786.43   50.29
  -3   3 -17  767.05   50.56
  -3  -3 -16   19.50    5.47
  -3   3 -16   27.08    3.83
  -3   3 -16   26.90    3.32
  -3  -3 -16   18.49    2.98
  -3   3 -16   22.13    3.08
  -3   3 -15   92.57    7.66
  -3   3 -15  124.82    9.24
  -3   3 -15   92.81    7.87
  -3  -3 -15   98.53    8.14
  -3  -3 -15   93.75   12.59
  -3  -3 -15   85.60    8.14
  -3   3 -14   36.56    3.80
  -3   3 -14   34.48    3.92
  -3  -3 -14   45.90    7.93
  -3  -3 -14   36.91    7.11
  -3  -3 -14   41.62    4.26
  -3   3 -14   38.43    4.53
  -3   3 -14   30.14    5.79
  -3  -3 -14   44.42    4.33
  -3  -3 -14   41.81    4.41
  -3   3 -14   27.16    7.40
  -3   3 -13   12.67    3.69
  -3  -3 -13   11.24    2.03
  -3   3 -13   23.33    2.59
  -3   3 -13   16.97    2.79
  -3   3 -13    1.78    3.39
  -3  -3 -13   13.52    4.27
  -3  -3 -13    7.51    3.82
  -3   3 -13   15.19    2.06
  -3  -3 -13   15.34    2.44
  -3  -3 -13   10.88    2.06
  -3  -3 -13   22.22    5.20
  -3  -3 -12  259.52   17.80
  -3   3 -12  233.66   17.08
  -3   3 -12  223.05   22.69
  -3   3 -12  238.24   20.24
  -3  -3 -12  279.32   22.87
  -3  -3 -12  315.71   23.12
  -3  -3 -12  290.75   22.52
  -3  -3 -12  252.70   17.42
  -3   3 -11  393.29   29.74
  -3  -3 -11  342.73   23.31
  -3  -3 -11  334.77   27.81
  -3  -3 -11  366.50   27.73
  -3  -3 -11  320.36   23.53
  -3   3 -11  351.83   23.13
  -3   3 -11  388.50   26.70
  -3  -3 -11  382.01   28.12
  -3   3 -10  601.60   38.88
  -3   3 -10  565.64   44.13
  -3  -3 -10  610.65   39.10
  -3  -3 -10  605.14   39.41
  -3  -3 -10  601.76   43.64
  -3  -3 -10  623.07   43.19
  -3   3 -10  552.48   41.59
  -3  -3 -10  634.09   43.55
  -3  -3  -9    6.57    2.81
  -3  -3  -9    7.48    1.29
  -3  -3  -9    1.62    1.04
  -3   3  -9    4.71    2.59
  -3   3  -9    7.67    2.25
  -3  -3  -9    4.53    2.00
  -3  -3  -9    3.04    2.23
  -3   3  -9    5.41    1.11
  -3  -3  -8    8.95    1.63
  -3   3  -8    8.05    2.24
  -3  -3  -8    5.43    2.54
  -3  -3  -8    8.91    2.65
  -3   3  -8   11.54    3.72
  -3  -3  -8    9.29    2.84
  -3   3  -7  129.42   12.37
  -3  -3  -7  119.77   11.51
  -3  -3  -7  141.27   11.87
  -3  -3  -7  124.24   11.43
  -3   3  -7  124.44   10.62
  -3   3  -6  199.17   14.98
  -3   3  -6  176.81   16.19
  -3  -3  -6  214.03   16.26
  -3  -3  -6  204.62   15.84
  -3   3  -5   32.59    4.01
  -3  -3  -5   42.23    5.11
  -3   3  -4  388.63   25.67
  -3  -3  -4  361.88   26.35
  -3  -3  -3   18.38    2.92
  -3   3  -3   17.38    2.44
  -3  -3  -2   93.53    7.34
  -3   3  -2   77.96    6.49
  -3  -3  -1  924.53   61.41
  -3   3  -1  969.14   60.89
   3  -3   0    1.43    0.72
   3   3   0    0.99    0.90
  -3  -3   0    1.36    1.30
  -3   3   0    3.40    1.16
   3  -3  -1   99.64    7.13
  -3  -3   1  100.91    8.22
   3   3  -1  103.95    7.32
  -3   3   1  117.13    8.16
  -3   3   2   31.75    3.07
  -3  -3   2   26.83    2.94
   3   3  -2   27.17    3.55
  -3   3   2   34.41    3.56
  -3  -3   3 1119.89   69.30
   3   3  -3 1089.11   70.43
  -3   3   3 1044.75   69.40
  -3   3   3 1106.17   70.21
  -3   3   4   27.20    3.36
   3   3  -4   42.13    3.92
  -3  -3   4   35.46    2.91
  -3   3   4   18.41    2.61
  -3  -3   5  570.95   33.98
  -3   3   5  501.36   34.07
  -3   3   5  470.52   34.47
   3   3  -5  519.55   34.20
   3   3  -6  220.46   16.40
  -3   3   6  223.05   16.33
  -3  -3   6  249.10   16.22
   3  -3  -6  231.97   16.12
  -3  -3   7 2363.45  141.80
   3   3  -7 2156.20  142.09
  -3   3   7 2054.13  141.97
   3  -3  -7 2318.11  141.78
  -3   3   8  668.00   43.90
   3   3  -8  583.63   43.56
   3  -3  -8  661.20   43.35
  -3  -3   8  704.96   43.52
   3   3  -9 1391.37   95.88
   3  -3  -9 1492.80   95.36
  -3  -3   9 1637.66   95.76
  -3   3   9 1383.37   95.85
  -3  -3  10  280.91   19.10
  -3   3  10  219.40   18.96
   3  -3 -10  256.27   18.71
   3   3 -10  248.48   19.21
   3   3 -11   45.90    5.99
   3  -3 -11   52.06    5.81
  -3  -3  11   55.79    6.16
   3  -3 -11   45.11    6.38
  -3   3  11   40.62    5.97
  -3   3  12    0.92    1.73
   3  -3 -12    7.90    2.96
  -3  -3  12    8.27    2.58
   3  -3 -12    8.34    2.25
  -3   3  13   34.89    5.81
   3  -3 -13   37.91    6.14
  -3  -3  13   48.98    6.01
  -3   3  14   89.97   10.70
   3  -3 -14  106.26   11.56
  -3  -3  14  104.47   10.52
  -3  -3  15   62.46    8.12
   3  -3 -15   65.85    8.12
   3  -3 -15   60.39    5.26
   3   3 -15   62.49    8.67
   3   3 -15   70.30    5.48
  -3   3  15   41.38    7.66
   3  -3 -15   78.04    9.59
   3  -3 -16    5.51    2.44
  -3  -3  16   16.04    4.15
   3  -3 -16    8.86    1.64
  -3   3  16    5.48    3.02
   3   3 -16    3.36    1.45
   3  -3 -16    7.11    3.55
   3   3 -16    8.35    1.60
   3   3 -16    6.76    3.56
   3  -3 -17  410.37   27.22
   3  -3 -17  441.33   33.87
   3   3 -17  402.49   27.31
   3   3 -17  409.36   27.56
  -3   3  17  362.02   32.35
   3  -3 -17  406.71   31.65
   3   3 -17  374.18   32.52
  -3  -3  17  410.75   32.05
   3  -3 -17  418.48   27.36
   3  -3 -18  204.95   13.30
   3   3 -18  169.71   13.27
   3   3 -18  182.88   13.24
  -3  -3  18  179.99   17.50
   3   3 -18  177.26   18.54
   3  -3 -18  188.24   17.64
   3  -3 -18  206.26   19.45
   3   3 -18  162.82   13.29
  -3   3  18  172.02   18.26
   3   3 -19  399.48   26.98
   3  -3 -19  427.23   34.03
  -3  -3  19  416.96   32.33
   3  -3 -19  360.83   31.48
   3  -3 -19  387.36   26.53
  -3   3  19  331.68   32.06
   3   3 -19  407.48   33.61
   3   3 -19  407.70   27.04
   3   3 -19  392.02   26.75
   3   3 -20   63.08   10.39
   3   3 -20   43.14    5.13
  -3  -3  20   57.11    8.89
   3  -3 -20   61.08    5.27
   3   3 -20   46.41    4.95
   3  -3 -20   70.01    9.75
   3   3 -20   49.76    5.32
   3  -3 -20   71.72   10.74
  -3   3  20   49.09    9.11
   3   3 -21  423.58   27.93
  -3   3  21  358.34   33.67
   3  -3 -21  390.16   33.31
   3   3 -21  424.82   35.61
   3   3 -21  418.88   27.56
   3  -3 -21  412.83   27.37
  -3  -3  21  365.18   32.66
   3  -3 -21  352.01   33.73
   3   3 -21  387.24   27.62
   3   3 -22  283.62   27.61
   3   3 -22  294.71   20.39
   3  -3 -22  305.39   20.14
   3   3 -22  265.07   20.07
   3   3 -22  249.18   19.73
  -3   3  22  236.63   25.61
   3  -3 -22  317.45   20.09
   3  -3 -22  273.81   25.90
   3   3 -22  295.53   20.62
  -3  -3  22  238.07   24.63
   3   3 -23    4.85    2.10
   3   3 -23    4.44    3.18
   3  -3 -23    2.61    1.41
   3   3 -23    2.92    1.57
  -3  -3  23    3.35    2.41
   3   3 -23    1.72    1.52
   3  -3 -23    1.80    3.33
  -3   3  23    1.95    2.80
   3   3 -24   38.43    4.65
   3  -3 -24   28.85    3.82
   3   3 -24   33.25    4.07
   3   3 -24   32.11    3.95
   3  -3 -25  623.41   41.64
   3   3 -25  625.05   42.22
   3   3 -25  630.31   41.56
   3   3 -26    6.92    2.01
   3   3 -26    7.57    2.17
   3  -3 -26    6.92    1.90
   3   3 -27  367.97   25.24
   3  -3 -27  373.95   25.39
   3   3 -27  377.22   25.88
   3   3 -28    2.81    1.46
   3  -3 -28    2.94    1.55
   3   3 -28    4.46    1.32
   3   3 -29   46.87    4.43
   3  -3 -29   40.95    4.05
   3   3 -30   41.65    3.98
   3  -3 -30   49.47    3.92
  -3   5 -25   -0.20    0.28
  -3   5 -24  223.15    7.82
  -3   5 -24  216.32    6.69
   3   5  24  233.23    6.90
   3   5  23  175.37   11.36
  -3   5 -23  134.16   11.13
  -3   5 -23  133.01   11.30
  -3  -5 -23  168.38   10.74
  -3  -5 -23  132.10   10.63
  -3  -5 -22   -1.30    1.61
  -3  -5 -22    3.57    1.21
   3   5  22    1.52    1.26
  -3   5 -22   -0.44    1.96
  -3   5 -22    3.16    1.71
  -3  -5 -21   54.69    5.92
  -3   5 -21   71.52    6.88
  -3  -5 -21   80.02    6.31
  -3   5 -21   77.77    6.82
  -3   5 -20    1.95    1.61
  -3  -5 -20    4.78    1.87
  -3   5 -20   -1.09    2.17
  -3  -5 -20    2.75    1.59
  -3  -5 -19 1250.10   89.21
  -3   5 -19 1414.03   90.37
  -3  -5 -19 1514.46   89.68
  -3  -5 -19 1529.95   98.96
  -3  -5 -18  253.19   20.45
   3   5  18  290.79   25.77
  -3  -5 -18  310.50   28.51
  -3  -5 -17 2216.07  139.17
  -3  -5 -17 1934.42  129.76
   3  -5  17 2077.04  135.54
   3   5  17 2135.60  135.94
  -3   5 -17 2073.35  130.82
  -3  -5 -16   45.91    8.56
  -3  -5 -16   28.67    3.48
   3   5  16   34.38    6.74
  -3   5 -16   36.25    4.50
   3  -5  16   35.72    6.58
  -3  -5 -16   21.53    3.33
  -3   5 -15  354.85   24.45
   3  -5  15  391.06   28.72
  -3  -5 -15  331.81   23.36
  -3  -5 -15  306.78   23.36
  -3  -5 -15  362.52   30.62
  -3   5 -15  357.83   23.81
   3   5  15  338.72   28.16
  -3   5 -15  347.89   23.77
  -3   5 -14   18.11    2.97
   3  -5  14   34.40    6.11
  -3  -5 -14   22.58    3.37
   3   5  14   19.38    5.12
  -3   5 -14   22.51    3.54
  -3   5 -14   27.09    4.06
  -3   5 -14   28.46    3.40
  -3  -5 -14   31.23    6.74
  -3  -5 -14   23.99    3.21
  -3  -5 -13    8.47    2.04
  -3  -5 -13    4.87    3.01
  -3   5 -13    5.11    2.27
  -3   5 -13    4.10    1.47
  -3   5 -13    3.44    1.60
  -3  -5 -13    2.72    1.35
  -3   5 -12    1.03    1.71
  -3   5 -12    2.08    1.15
  -3  -5 -12   -0.39    1.31
  -3  -5 -12    1.52    1.78
  -3  -5 -12    3.86    1.66
  -3   5 -12   -0.46    2.41
  -3   5 -11    1.29    1.07
  -3  -5 -11    1.41    2.33
  -3  -5 -11    3.07    1.32
  -3   5 -11    0.46    1.53
  -3  -5 -11    4.12    1.80
  -3   5 -10  146.80   11.11
  -3   5 -10  152.01   11.71
  -3   5 -10  153.08   10.63
  -3  -5 -10  181.25   16.16
  -3  -5  -9 1145.43   70.76
  -3   5  -9 1022.50   64.48
  -3   5  -9  959.63   65.45
  -3   5  -8  232.54   17.42
  -3  -5  -8  224.88   18.58
  -3   5  -7  918.48   61.07
  -3  -5  -7  949.33   62.55
  -3  -5  -6   24.48    3.96
  -3   5  -6   27.41    3.47
  -3   5  -6   25.36    3.02
  -3   5  -5  582.76   37.85
  -3   5  -5  544.03   37.30
  -3  -5  -5  617.41   39.01
  -3   5  -4  213.95   14.95
  -3  -5  -4  241.47   16.08
  -3   5  -4  184.73   15.17
  -3   5  -4  237.58   15.23
  -3   5  -3  145.45   11.90
  -3   5  -3  163.03   11.60
  -3   5  -3  178.03   11.54
  -3  -5  -3  170.13   12.08
   3   5   2    4.13    1.02
   3   5   2    5.99    2.41
  -3   5  -2    4.67    1.61
   3   5   2    3.18    0.88
  -3   5  -2    6.66    1.40
  -3   5  -1   31.83    3.65
   3   5   1   38.95    3.28
   3   5   1   43.70    5.51
  -3   5   0  298.52   20.26
  -3   5   1   22.87    3.74
  -3   5   2   15.02    3.10
  -3   5   2   17.91    2.07
  -3   5   3   24.22    2.50
  -3   5   3   20.45    3.68
   3   5  -3   26.02    4.09
   3   5  -4   18.49    3.34
  -3   5   4   16.84    3.17
   3   5  -4   12.49    1.33
  -3   5   4    7.57    1.15
  -3   5   4   12.83    1.72
  -3   5   5    1.72    0.91
   3   5  -5    1.89    0.88
  -3   5   5    1.70    0.75
  -3   5   5    0.69    1.29
  -3   5   6  361.86   24.55
  -3   5   6  384.35   27.28
  -3   5   6  383.35   24.89
  -3  -5   6  370.24   24.63
  -3   5   7  173.20   12.68
  -3   5   7  171.28   12.12
  -3  -5   7  175.03   12.40
  -3   5   7  172.58   14.53
  -3  -5   8   82.46    7.01
  -3   5   8   79.95    6.48
  -3   5   8   84.69    8.85
   3   5  -8   80.10    7.72
  -3   5   8   93.90    7.56
  -3  -5   9  225.78   16.17
   3   5  -9  238.73   17.31
   3  -5  -9  245.59   16.70
  -3   5   9  212.34   15.25
  -3   5   9  222.76   18.04
  -3   5   9  197.00   16.32
  -3   5  10  222.94   18.90
   3  -5 -10  258.19   17.87
  -3  -5  10  237.89   17.37
   3   5 -10  252.38   18.56
  -3   5  10  220.28   16.09
  -3   5  10  223.71   17.70
  -3   5  11  112.37   10.38
  -3   5  11  113.15    8.44
  -3  -5  11  102.36    9.58
   3  -5 -11  104.42    9.77
  -3   5  11   98.87   10.66
   3   5 -11  112.58   10.73
  -3   5  12   63.40    7.46
   3   5 -12   68.27    8.12
  -3   5  12   53.35    7.55
   3  -5 -12   57.84    5.80
   3   5 -12   61.48    5.28
  -3   5  12   74.41    5.78
  -3  -5  12   63.29    7.11
   3  -5 -12   62.11    7.18
   3   5 -12   63.01    5.40
   3   5 -13  988.74   66.58
  -3   5  13  969.55   62.76
  -3  -5  13 1091.90   65.70
  -3   5  13  963.27   65.93
   3  -5 -13  934.07   68.37
   3   5 -13  933.35   62.38
   3  -5 -13  976.51   63.13
   3  -5 -13  972.33   65.36
  -3   5  14  335.43   25.68
   3  -5 -14  322.03   22.45
   3  -5 -14  294.76   24.47
  -3   5  14  346.23   22.26
   3  -5 -14  339.83   28.34
   3   5 -14  299.74   21.69
   3   5 -14  311.73   25.88
  -3  -5  14  339.55   24.94
   3  -5 -15  731.42   50.86
   3  -5 -15  780.43   54.83
  -3  -5  15  835.24   51.55
  -3   5  15  720.90   47.56
   3   5 -15  618.43   51.33
   3   5 -15  684.58   47.02
   3  -5 -15  775.49   48.01
  -3   5  15  729.13   51.56
   3   5 -16    7.10    3.56
   3   5 -16   10.08    1.90
   3  -5 -16   11.47    2.43
   3   5 -16    8.66    1.94
  -3  -5  16   16.72    3.95
   3  -5 -16    8.89    2.96
   3  -5 -16    1.79    3.01
  -3   5  16    7.73    2.03
  -3   5  16   13.84    3.93
   3  -5 -17   33.92    7.61
   3   5 -17   12.38    5.00
  -3  -5  17   22.95    5.00
   3  -5 -17   22.82    2.75
  -3   5  17   29.70    5.87
  -3   5  17   20.79    3.12
   3   5 -17   20.57    2.87
   3  -5 -17   25.39    5.30
   3   5 -17   20.84    3.02
   3  -5 -17   37.99    4.00
   3  -5 -18   22.77    2.94
  -3  -5  18   27.16    5.69
  -3   5  18   24.22    5.88
   3   5 -18   23.17    3.23
   3   5 -18   33.08    3.79
   3   5 -18   30.04    6.67
  -3   5  18   26.28    3.50
   3  -5 -18   23.34    3.36
   3  -5 -18   36.47    6.31
  -3   5  19  380.90   25.95
   3   5 -19  394.94   26.04
  -3   5  19  402.49   31.54
   3  -5 -19  351.48   25.23
   3   5 -19  396.11   25.99
   3  -5 -19  376.01   25.87
   3  -5 -19  329.01   29.84
   3   5 -19  341.85   31.63
  -3  -5  19  429.64   31.29
   3  -5 -19  332.15   32.44
   3   5 -19  373.38   26.12
   3   5 -20   23.86    3.44
   3  -5 -20   19.06    5.96
   3  -5 -20   17.05    2.70
   3   5 -20   22.42    6.13
   3   5 -20   25.60    3.53
  -3   5  20   13.61    4.35
  -3   5  20   25.12    3.41
   3   5 -20   22.42    3.26
   3   5 -21  206.35   21.57
  -3   5  21  203.83   15.34
   3   5 -21  218.71   15.81
   3  -5 -21  216.78   22.80
  -3   5  21  180.76   19.42
   3   5 -21  232.23   15.77
   3  -5 -21  195.04   14.88
   3   5 -21  209.78   15.57
   3   5 -22  117.55    9.43
   3  -5 -22   96.60    8.49
   3   5 -22  109.10    9.14
  -3   5  22  108.04    8.93
   3   5 -22  124.41    9.40
   3  -5 -23  249.38   18.39
   3  -5 -23  255.40   18.07
   3   5 -23  280.55   19.14
   3   5 -23  283.85   19.35
   3   5 -23  255.74   18.95
  -3   5  23  270.48   18.70
   3   5 -24  240.69   16.98
   3   5 -24  257.98   17.21
  -3   5  24  223.14   16.44
   3  -5 -24  211.48   16.25
   3   5 -24  247.17   17.23
   3  -5 -25 1666.35  112.79
   3   5 -25 1806.44  113.39
   3   5 -25 1910.04  113.63
   3   5 -25 1765.04  113.66
   3  -5 -26    7.52    1.72
   3   5 -26   16.32    2.54
   3   5 -26   12.80    2.29
   3   5 -27    0.26    0.65
   3   5 -27  992.37   15.25
   3   5 -28   70.77    5.84
   3   7  23  170.02   11.32
  -3   7 -23  140.08   11.44
  -3  -7 -23  160.29   10.87
  -3  -7 -22  606.47   40.17
   3   7  22  635.16   40.56
  -3   7 -22  624.84   40.96
   3   7  21   41.83    4.08
  -3   7 -21   36.34    4.18
  -3  -7 -21   36.53    3.76
  -3   7 -21   32.08    4.03
  -3  -7 -20   14.09    2.29
  -3   7 -20   14.69    2.60
   3   7  20   11.50    2.25
  -3   7 -20   11.90    2.42
  -3   7 -19   15.78    2.86
  -3   7 -19   20.99    3.17
   3   7  19   12.83    2.48
  -3   7 -18   35.63    4.28
   3   7  18   27.09    3.69
  -3  -7 -18   30.39    3.43
  -3   7 -18   39.91    4.42
   3   7  17   37.17    4.09
  -3   7 -17   28.22    4.02
  -3   7 -17   25.86    3.84
  -3  -7 -17   29.84    3.53
  -3  -7 -16   16.91    5.44
   3   7  16    3.10    3.24
   3   7  16   13.30    2.62
  -3   7 -16   15.03    2.81
  -3  -7 -16   13.61    2.41
  -3   7 -16   16.99    2.84
   3   7  15   10.16    2.36
   3   7  15    7.79    3.46
  -3   7 -15    6.22    2.07
  -3  -7 -15   13.13    4.94
  -3  -7 -15   14.39    2.73
  -3   7 -15    9.54    2.31
  -3  -7 -15   10.29    2.21
   3   7  14  524.34   42.04
  -3  -7 -14  588.10   44.38
  -3   7 -14  545.95   36.93
  -3  -7 -14  564.24   37.18
  -3  -7 -14  510.66   36.66
   3   7  14  549.78   36.80
  -3   7 -14  578.80   37.18
   3   7  13  344.97   29.11
  -3   7 -13  333.69   24.04
   3   7  13  351.05   24.08
  -3  -7 -13  359.24   24.27
  -3  -7 -13  334.13   30.17
  -3  -7 -12 1052.83   78.53
  -3   7 -12 1175.41   73.02
   3   7  12 1084.86   77.52
  -3  -7 -12 1121.88   72.18
  -3   7 -12 1126.99   72.01
   3   7  12 1063.30   71.83
  -3   7 -11  166.39   12.70
  -3  -7 -11  180.87   13.31
  -3   7 -11  154.23   13.23
  -3  -7 -11  159.96   17.71
   3   7  11  169.69   17.10
   3   7  11  179.39   12.84
  -3  -7 -10  774.38   56.78
   3   7  10  767.87   55.93
  -3   7 -10  787.36   50.57
  -3  -7 -10  755.17   50.95
   3   7   9   64.51    9.26
  -3   7  -9   70.02    6.29
  -3  -7  -9   77.60    6.90
   3   7   8  846.51   58.39
  -3   7  -8  827.38   53.13
  -3   7  -8  763.42   53.62
  -3  -7  -8  815.49   53.67
  -3   7  -8  840.50   52.94
  -3   7  -7   78.82    6.43
   3   7   7   84.18   10.23
   3   7   7   86.31    6.81
  -3   7  -7   77.51    7.14
  -3  -7  -7   71.31    6.90
  -3   7  -7   81.70    6.63
  -3   7  -7   78.34    7.11
  -3   7  -6   19.57    2.79
   3   7   6   13.66    2.14
  -3  -7  -6   10.39    2.26
   3   7   6   10.96    3.59
  -3   7  -6   11.24    1.83
  -3   7  -6   20.20    2.78
   3   7   5   32.94    3.51
  -3   7  -5   39.72    4.08
  -3  -7  -5   28.75    3.73
  -3   7  -5   38.61    4.10
  -3   7  -5   35.66    3.38
   3   7   5   22.50    4.96
  -3  -7  -4  165.53   13.21
   3   7   4  205.32   17.32
   3   7   4  188.46   13.05
  -3   7  -4  186.60   13.42
  -3   7  -4  181.07   13.43
  -3   7  -3  150.04   10.73
  -3   7  -3  133.46   10.44
   3   7   3  123.39   10.06
   3   7   3  122.94   13.34
   3   7   2    8.87    3.30
  -3   7  -2   15.98    2.60
  -3   7  -2   11.91    2.14
  -3   7  -2   20.29    2.68
   3   7   2   15.34    2.12
  -3   7  -1   11.51    2.14
  -3   7  -1   11.53    2.17
   3   7   1   10.48    1.70
   3   7   1    6.58    2.93
   3   7   1    7.61    1.58
  -3   7   0  131.01   10.43
  -3   7   0  139.54   10.78
   3   7   0  133.99   10.17
   3   7   0  152.59   10.19
   3   7  -1   29.03    3.05
  -3   7   1   30.65    3.53
   3   7  -1   21.98    2.63
   3   7  -2    6.12    1.44
   3   7  -2    8.90    1.57
   3   7  -3    4.31    1.20
  -3   7   3    1.07    1.55
   3   7  -3    1.89    1.06
  -3   7   4   16.24    4.03
   3   7  -4   14.46    2.18
  -3   7   4   18.11    2.54
   3   7  -5  110.66    8.60
  -3   7   5  112.60    8.78
  -3   7   5  121.76   12.12
  -3   7   6  772.38   53.25
  -3   7   6  752.70   48.96
   3   7  -6  742.82   48.75
   3   7  -7   73.85    6.82
  -3   7   7   87.61    7.14
   3   7  -7   91.28    6.81
  -3   7   7   91.28   10.27
   3   7  -8  117.47    8.01
  -3   7   8   84.24   10.68
   3   7  -8   88.69    7.86
  -3   7   8  107.68    8.17
   3   7  -8   91.05    7.63
   3   7  -9  232.97   17.22
  -3   7   9  223.53   20.77
  -3   7   9  250.04   17.31
   3   7  -9  241.60   16.89
   3   7  -9  255.38   17.01
   3   7 -10  155.45   11.66
  -3   7  10  138.40   15.14
  -3   7  10  172.51   12.14
  -3   7  11    6.76    1.72
  -3   7  11    3.81    2.11
   3   7 -11    2.07    1.26
   3  -7 -12  534.62   37.00
  -3   7  12  578.61   36.84
  -3   7  12  542.29   41.12
   3   7 -12  538.19   36.40
   3   7 -13   36.19    4.32
  -3   7  13   49.90    4.89
   3  -7 -13   53.30    5.38
  -3   7  13   37.53    6.84
   3   7 -14   46.62    4.60
  -3   7  14   35.59    6.65
   3  -7 -14   35.49    4.62
   3  -7 -14   39.18    8.45
  -3   7  14   35.27    4.31
  -3   7  15   -1.39    1.99
   3  -7 -15    3.61    1.86
   3   7 -15    0.43    1.17
  -3   7  15   -1.36    1.35
   3  -7 -16  143.40   11.46
   3   7 -16  141.11   11.09
   3  -7 -16  171.69   18.71
  -3   7  16  131.61   11.07
   3  -7 -17   53.65   10.24
   3   7 -17   71.15    6.23
  -3   7  17   54.02    5.77
   3  -7 -17   54.72    5.91
   3  -7 -18  677.02   46.44
   3   7 -18  708.18   47.03
   3  -7 -18  732.83   47.18
   3  -7 -18  714.32   55.60
  -3   7  18  724.61   47.00
   3  -7 -19  470.65   31.09
   3   7 -19  438.73   30.99
   3  -7 -19  427.68   38.66
  -3   7  19  458.47   30.98
  -3   7  20 1539.98  101.35
   3  -7 -20 1649.86  101.51
   3   7 -20 1544.73  101.77
   3   7 -21  208.89   16.32
  -3   7  21  233.03   16.21
   3   7 -22  260.24   18.82
  -3   7  22  260.46   18.38
   3  -7 -23   70.17    5.72
   3   7 -23   58.71    6.17
  -3   7  23   69.98    5.98
   3   7 -24   26.83    3.05
   3   7 -24   33.50    3.21
  -3   7  24   31.21    2.73
   3   7 -25   24.98    3.11
   3   7 -25   19.48    2.84
   3   7 -26   73.17    6.08
   3   7 -27   31.45    3.10
  -3  -9 -22   24.52    2.13
  -3  -9 -21   42.63    3.55
  -3   9 -20  172.70   13.74
  -3  -9 -20  213.71   13.63
   3   9  20  217.67   13.90
  -3   9 -20  183.91   13.71
  -3  -9 -19  183.67   13.75
  -3   9 -19  212.96   14.33
  -3   9 -19  196.58   14.07
   3   9  19  202.98   14.06
  -3   9 -18  756.27   49.11
  -3   9 -18  750.77   48.96
   3   9  18  858.10   49.15
  -3  -9 -18  690.89   48.17
  -3   9 -17   51.71    4.77
  -3  -9 -17   34.41    3.91
   3   9  17   41.69    4.44
  -3   9 -17   55.00    4.93
  -3   9 -16  403.36   29.62
   3   9  16  480.91   29.90
  -3  -9 -16  449.08   29.46
  -3   9 -16  431.70   29.88
  -3  -9 -15  262.10   19.99
  -3   9 -15  294.89   20.39
   3   9  15  302.41   20.39
  -3   9 -15  304.74   20.60
  -3   9 -14    3.41    1.74
  -3   9 -14    2.71    1.46
   3   9  14    5.39    1.73
  -3  -9 -14    4.13    1.65
  -3   9 -13   19.25    2.99
  -3  -9 -13   18.52    3.08
  -3  -9 -13   22.01    3.21
   3   9  12   71.07   10.79
  -3  -9 -12   94.88    8.05
  -3   9 -12   82.09    7.65
  -3  -9 -12   94.14   12.30
  -3  -9 -12  101.02    8.15
  -3   9 -11  299.93   20.62
  -3  -9 -11  296.49   20.95
  -3  -9 -11  271.35   20.68
   3   9  11  307.78   26.27
  -3  -9 -11  307.73   26.82
  -3   9 -10    0.81    1.30
   3   9  10    4.71    3.18
  -3  -9 -10    6.79    2.17
  -3  -9 -10    1.66    2.38
  -3   9  -9   10.11    2.15
  -3  -9  -9    7.30    2.30
  -3   9  -9    9.41    2.76
  -3  -9  -9    6.55    3.62
   3   9   9    6.76    1.92
   3   9   8  435.61   29.70
  -3   9  -8  467.30   30.74
  -3  -9  -8  418.31   29.96
   3   9   8  428.58   35.08
   3   9   7  147.95   10.83
  -3   9  -7  134.23   10.32
   3   9   7  157.17   15.90
  -3  -9  -7  123.13   10.79
  -3   9  -7  133.09   11.41
  -3   9  -6  564.17   37.84
  -3  -9  -6  591.90   38.69
   3   9   6  570.17   43.93
   3   9   6  629.45   38.49
  -3   9  -6  504.93   38.68
  -3   9  -6  584.02   39.10
  -3   9  -5   58.58    5.04
   3   9   5   58.28    8.92
  -3   9  -5   59.13    5.93
   3   9   5   52.79    5.21
  -3  -9  -5   43.52    5.13
  -3   9  -5   43.62    5.48
   3   9   4  452.16   29.24
  -3   9  -4  430.96   28.70
  -3   9  -4  458.56   29.94
  -3  -9  -4  409.73   29.36
   3   9   4  440.29   34.83
  -3   9  -4  398.20   29.61
   3   9   3    7.75    1.88
  -3   9  -3    5.44    1.87
  -3   9  -3    6.05    1.49
   3   9   3   10.61    4.36
  -3   9  -3    3.53    1.81
  -3  -9  -3    8.45    2.18
  -3  -9  -2  450.27   32.17
   3   9   2  475.20   32.00
  -3   9  -2  491.47   32.54
  -3   9  -2  466.79   32.56
   3   9   2  424.30   36.95
  -3   9  -2  465.58   31.45
  -3   9  -2  546.68   32.68
   3   9   1  190.52   13.57
  -3   9  -1  160.88   12.87
  -3   9  -1  208.18   14.10
  -3  -9  -1  175.58   13.69
  -3   9  -1  205.80   14.16
   3   9   1  167.23   17.77
  -3   9  -1  192.21   14.18
  -3   9   0  904.33   60.40
   3   9   0  860.81   65.32
   3   9   0  909.95   59.86
  -3   9   0 1074.23   60.62
  -3   9   0  926.26   60.25
  -3   9   0  874.30   59.23
  -3   9   1   26.08    3.66
  -3   9   1   26.93    3.43
  -3   9   1   21.87    2.74
   3   9  -1   23.63    3.24
  -3   9   1   25.27    3.38
  -3   9   2  967.51   66.60
  -3   9   2 1088.87   66.78
  -3   9   2 1037.20   66.31
   3   9  -2 1004.50   66.24
   3   9  -3   73.12    6.82
  -3   9   3   92.27    7.52
  -3   9   4  833.12   52.05
   3   9  -4  752.25   51.41
  -3   9   5  135.75   11.15
   3   9  -5  146.30   10.98
   3   9  -6  314.66   21.58
   3   9  -6  316.14   21.25
  -3   9   6  308.84   22.03
   3   9  -6  309.26   21.78
  -3   9   7   10.80    3.94
   3   9  -7   16.28    2.40
  -3   9   7   18.88    3.02
   3   9  -7   14.27    2.51
   3   9  -7   13.19    2.32
  -3   9   8   75.80   10.91
   3   9  -8   81.03    6.97
   3   9  -8   81.69    6.81
  -3   9   8   76.22    7.22
   3   9  -8   86.81    7.35
   3   9  -9    2.11    1.19
   3   9  -9    4.27    1.68
  -3   9   9    4.70    1.79
  -3   9   9    7.75    3.40
   3   9 -10  492.71   33.81
  -3   9  10  483.74   39.32
   3  -9 -10  463.91   34.27
  -3   9  10  509.36   34.30
   3   9 -10  553.15   33.85
  -3   9  11   27.30    3.65
  -3   9  11   23.19    5.79
   3   9 -11   22.72    3.25
   3   9 -11   26.83    3.32
   3   9 -12 1418.59   87.59
  -3   9  12 1289.85   93.14
   3   9 -12 1335.99   87.64
  -3   9  12 1344.73   88.03
   3   9 -13  239.62   17.03
  -3   9  13  210.06   21.20
   3   9 -13  230.60   16.78
  -3   9  13  238.12   17.27
   3   9 -14 1752.67  111.96
   3  -9 -14 1719.49  112.54
  -3   9  14 1772.59  112.39
   3   9 -15    2.52    1.31
   3  -9 -15    5.01    1.99
  -3   9  15    0.94    1.30
   3  -9 -16  566.88   37.74
   3   9 -16  569.65   37.44
  -3   9  16  542.42   37.55
  -3   9  17  106.12    8.71
   3   9 -17  117.68    8.78
   3  -9 -17   93.43    8.50
   3  -9 -17   95.20    8.31
   3  -9 -18    2.11    1.57
  -3   9  18    2.52    1.49
   3   9 -18    2.81    1.34
   3  -9 -18    4.45    1.51
  -3   9  19  105.61    8.28
   3   9 -19   93.99    8.04
   3  -9 -19  107.43    8.25
   3  -9 -19   89.30    7.52
   3   9 -20  209.60   16.00
  -3   9  20  244.91   16.25
  -3   9  21   -0.32    1.04
   3   9 -21    0.33    1.06
   3   9 -21    0.38    1.24
  -3   9  22    9.17    1.69
   3   9 -22    9.55    1.80
   3   9 -22    8.37    1.88
   3   9 -23   13.62    1.85
   3   9 -23   12.76    1.92
   3   9 -24  618.81   41.29
   3   9 -24  655.74   41.20
   3   9 -25  113.08    7.95
  -3  11 -17  267.74    5.83
  -3 -11 -17    0.12    0.25
  -3  11 -16    5.01    1.31
  -3 -11 -16    9.24    1.38
  -3 -11 -15   38.86    3.83
  -3  11 -15   49.80    4.17
  -3  11 -14  215.22   14.49
  -3 -11 -14  197.68   14.34
  -3  11 -13  159.58   11.19
  -3 -11 -13  143.84   11.06
  -3  11 -12  225.03   16.57
  -3 -11 -12  237.01   16.79
   3  11  12  258.30   16.92
  -3 -11 -12  234.52   16.75
  -3  11 -11  611.62   38.66
  -3 -11 -11  576.83   38.73
  -3 -11 -11  546.41   38.66
   3  11  11  608.69   38.81
  -3 -11 -10  143.33   11.44
   3  11  10  160.10   11.57
  -3 -11  -9  132.19   10.71
   3  11   9  144.80   10.76
  -3 -11  -8   23.21    3.27
   3  11   8   25.86    3.36
  -3 -11  -8   24.20    3.53
   3  11   7   19.00    2.77
  -3 -11  -7    8.93    2.23
   3  11   6   79.22    6.89
  -3 -11  -6   72.43    6.82
   3  11   5  144.90   10.82
  -3 -11  -5  128.31   10.71
  -3  11  -4   32.81    4.53
  -3 -11  -4   36.02    4.30
   3  11   4   38.47    4.27
  -3  11  -3   52.75    4.75
  -3 -11  -3   54.01    5.41
   3  11   3   40.56    4.92
  -3  11  -3   61.42    5.96
  -3 -11  -2  157.92   11.51
  -3  11  -2  129.71   10.43
   3  11   2  156.87   11.36
  -3  11  -2  141.27   11.73
   3  11   1  464.59   30.43
  -3 -11  -1  437.44   30.39
  -3  11  -1  438.69   30.90
  -3  11   0  260.19   19.60
  -3 -11   0  252.77   19.07
   3  11   0  294.41   19.32
  -3 -11   1  133.59   11.13
   3  11  -1  154.16   11.36
  -3  11   1  147.04   11.76
   3  11  -2   26.60    3.52
  -3  11   2   22.01    3.61
  -3  11   2   27.79    3.50
   3  11  -2   27.38    3.29
  -3 -11   2   32.92    3.81
  -3  11   3  599.01   42.13
   3  11  -3  616.50   41.21
  -3  11   3  661.14   41.68
   3  11  -3  629.95   41.62
   3  11  -4   64.15    5.63
  -3  11   4   62.47    5.81
  -3  11   4   53.43    6.03
   3  11  -4   60.56    5.83
  -3  11   5  344.02   22.49
   3  11  -5  296.04   21.95
   3  11  -5  331.17   22.41
   3  11  -6  128.35   10.14
  -3  11   6  146.23   10.61
   3  11  -6  125.38   10.34
  -3  11   7 1330.12   76.67
   3 -11  -7 1060.60   76.60
   3  11  -7 1162.66   76.13
  -3  11   8  410.86   25.04
   3  11  -8  343.55   24.48
   3 -11  -8  328.37   24.98
  -3  11   9  768.41   46.99
   3 -11  -9  659.17   47.06
   3  11  -9  709.85   46.65
  -3  11   9  704.29   47.19
   3 -11 -10   98.08    9.24
   3  11 -10  108.35    8.92
  -3  11  10  125.93    9.32
  -3  11  10  122.92    9.59
   3  11 -11   94.25    7.75
   3  11 -11  115.83    8.53
  -3  11  11  105.59    8.46
   3 -11 -11  105.99    8.86
  -3  11  11   98.57    8.66
   3  11 -12   22.93    2.83
  -3  11  12   31.65    3.57
   3 -11 -12   27.78    3.77
  -3  11  13    6.50    1.75
   3  11 -13    6.79    1.39
  -3  11  13    6.22    1.73
  -3  11  14   14.58    2.24
  -3  11  14   10.64    2.19
   3  11 -14   13.08    1.92
   3  11 -15    5.40    1.32
  -3  11  15    6.33    1.56
   3 -11 -15    7.33    1.82
  -3  11  15   10.72    2.03
   3  11 -16    5.80    1.46
  -3  11  16   10.59    1.99
   3 -11 -16    9.01    1.77
   3 -11 -16   12.81    2.10
   3  11 -17  438.67   31.62
   3 -11 -17  463.03   31.84
   3  11 -17  539.58   32.49
   3 -11 -17  507.36   32.25
  -3  11  17  542.55   32.49
   3  11 -18  127.93    5.22
  -3  11  18  152.45    5.61
   3  11 -19    0.16    0.39
   3  11 -19  649.56   10.70
   3  11 -20  372.02   24.47
   3  11 -21  680.65   43.58
  -3 -13 -12    0.85    0.61
  -3 -13  -9   59.86    4.95
   3  13   8    6.02    1.27
  -3 -13  -8    4.27    1.35
  -3 -13  -7  417.25   28.23
  -3 -13  -7  415.68   28.47
   3  13   7  463.26   28.53
   3  13   6    4.54    1.33
  -3 -13  -6    1.66    1.10
  -3 -13  -6    6.69    1.59
  -3 -13  -5  560.09   38.58
   3  13   5  646.44   38.97
  -3 -13  -5  588.06   38.99
  -3 -13  -4  193.01   13.40
   3  13   4  201.22   13.66
  -3 -13  -4  181.58   13.69
  -3 -13  -3  276.19   19.56
   3  13   3  306.61   19.92
  -3 -13  -3  294.84   20.06
  -3 -13  -2   30.91    3.07
   3  13   2   29.71    2.72
  -3 -13  -2   28.46    2.46
   3 -13   2   33.19    2.81
   3 -13   1  360.26    8.76
  -3 -13  -1  424.11   10.17
  -3 -13  -1  360.35    7.89
   3  13   1  400.29    9.10
  -3  13   0   91.55    6.86
   3  13   0   67.63    5.49
  -3 -13   0   83.94    6.48
   3 -13   0   60.35    6.00
   3  13   0   73.42    6.08
  -3  13   1   94.85    7.59
   3 -13  -1   79.38    7.08
   3  13  -1   82.05    6.53
  -3 -13   1   90.55    7.30
   3  13  -1  100.62    7.18
  -3  13   2   67.42    5.94
   3 -13  -2   62.19    5.58
  -3 -13   2   71.09    5.69
   3  13  -2   57.20    4.93
   3  13  -2   62.08    5.37
   3  13  -3  373.05   25.30
  -3 -13   3  389.16   25.74
   3 -13  -3  377.17   25.96
  -3  13   3  417.99   26.42
  -3  13   4   12.35    2.24
   3 -13  -4   11.60    2.20
   3  13  -4   15.30    1.93
   3 -13  -5   22.69    3.02
  -3  13   5   25.68    3.21
   3  13  -5   28.08    2.76
  -3  13   6   87.43    7.31
   3  13  -6   91.25    6.64
   3 -13  -6   80.76    7.01
  -3  13   7    4.14    1.37
   3 -13  -7    0.31    1.25
   3 -13  -8   16.87    2.33
  -3  13   8   14.53    2.33
   3 -13  -9   11.20    1.97
   3 -13 -10  199.26   13.95
   3 -13 -11  334.68   22.36
   3 -13 -12   67.29    5.61
  -3  13  12   71.94    5.79
   3 -13 -12   72.30    5.67
   3  13 -13  929.54   61.78
   3 -13 -13  999.09   62.11
   3 -13 -13 1002.42   62.06
   3  13 -14   50.17    3.89
   3 -13 -14   52.69    4.15
   3 -13 -14   48.56    4.01
  -4   0 -28  154.45   10.82
  -4   0 -27    2.33    1.17
  -4   0 -26   15.28    2.40
  -4   0 -25   -0.45    2.06
  -4   0 -24  742.52   49.37
  -4   0 -23   -1.68    2.53
  -4   0 -22   12.99    2.71
   4   0  21   -4.44    5.81
  -4   0 -21    3.63    1.87
  -4   0 -20  157.94   11.40
   4   0  20  120.84   17.18
  -4   0 -20  137.80   10.27
  -4   0 -20  140.77   11.87
  -4   0 -19    5.27    2.43
  -4   0 -19    3.46    1.69
  -4   0 -19    2.98    1.12
  -4   0 -18 2296.84  142.98
  -4   0 -18 2154.18  142.05
  -4   0 -18 2248.30  141.31
  -4   0 -17    4.23    2.01
  -4   0 -17    2.48    1.22
  -4   0 -17    2.40    1.56
  -4   0 -17    2.59    1.78
  -4   0 -16 1086.54   68.07
  -4   0 -16 1001.03   66.68
  -4   0 -16 1087.15   68.05
  -4   0 -16  984.01   74.61
  -4   0 -16 1044.29   67.36
  -4   0 -15   -1.72    2.84
  -4   0 -15    1.30    0.94
  -4   0 -15   -1.82    3.01
  -4   0 -15    3.53    1.55
  -4   0 -15    2.27    1.36
  -4   0 -15    3.58    1.61
  -4   0 -14  553.01   42.55
  -4   0 -14  568.37   43.14
  -4   0 -14  554.72   36.71
  -4   0 -14  528.45   35.71
  -4   0 -14  540.08   36.66
  -4   0 -14  574.81   36.31
  -4   0 -13    2.71    1.28
  -4   0 -13   -0.38    1.29
  -4   0 -13    0.30    0.94
  -4   0 -13    1.52    3.07
  -4   0 -13    1.52    1.13
  -4   0 -13   -1.43    2.89
  -4   0 -13    0.98    0.94
  -4   0 -12  190.25   13.85
  -4   0 -12  183.91   18.33
  -4   0 -12  199.20   18.45
  -4   0 -12  202.05   14.13
  -4   0 -11    2.50    1.10
  -4   0 -11    0.31    1.12
  -4   0 -11   -1.24    2.71
  -4   0 -11   -1.18    1.69
  -4   0 -10   72.41    8.86
  -4   0 -10   70.51    5.64
  -4   0 -10   64.44    8.68
  -4   0 -10   68.14    5.79
  -4   0  -9   -0.99    2.32
  -4   0  -9    0.66    0.79
  -4   0  -9   -0.96    2.23
  -4   0  -8 1916.24  136.88
  -4   0  -8 2181.59  133.66
  -4   0  -8 2033.45  137.25
  -4   0  -7    0.79    1.60
  -4   0  -7    3.87    2.31
  -4   0  -6 2132.13  129.51
  -4   0  -6 2001.86  128.42
  -4   0  -6 1880.10  129.02
  -4   0  -5    3.77    2.08
  -4   0  -5    2.82    1.51
  -4   0  -5    1.26    1.48
  -4   0  -4 8970.14  588.98
  -4   0  -4 9999.00  590.32
  -4   0  -3    2.78    2.35
  -4   0  -2 2742.47  175.10
  -4   0  -1    2.40    2.22
  -4   0   0   14.15    3.17
  -4   0   1    0.69    0.99
  -4   0   2  256.95   17.53
  -4   0   3    4.31    1.22
  -4   0   4  125.52    9.51
   4   0  -4  134.53    8.98
   4   0  -5    0.77    0.66
  -4   0   5    1.98    1.17
  -4   0   6 3793.47  237.06
   4   0  -6 3721.06  236.57
   4   0  -7    0.63    1.01
  -4   0   7    0.77    1.19
   4   0  -8   48.56    4.74
  -4   0   8   43.27    4.89
   4   0  -9    1.36    1.13
  -4   0   9    3.64    1.83
   4   0  -9    2.48    1.09
   4   0 -10   76.47    7.38
   4   0 -10   76.90    7.59
  -4   0  10   86.29    7.91
   4   0 -11    0.61    1.33
   4   0 -11    1.92    1.83
  -4   0  11   -0.67    1.36
   4   0 -12   45.47    5.66
   4   0 -12   36.78    5.31
  -4   0  12   40.04    5.43
   4   0 -13   -0.81    1.49
   4   0 -13    3.15    1.84
  -4   0  13    0.84    1.84
   4   0 -14  254.97   21.85
  -4   0  14  295.71   22.63
   4   0 -14  303.25   22.62
   4   0 -15   -0.99    1.64
   4   0 -15    1.00    1.84
  -4   0  15    1.03    1.91
  -4   0  16  573.15   39.57
   4   0 -16  517.76   34.71
  -4   0  17    1.25    2.07
   4   0 -17    3.83    1.38
   4   0 -17    2.09    1.00
  -4   0  18  244.39   23.65
   4   0 -18  275.98   19.21
   4   0 -18  311.82   19.78
   4   0 -18  280.45   19.68
  -4   0  19    1.49    2.46
   4   0 -19   -1.51    1.77
   4   0 -19    1.12    1.28
   4   0 -19    0.28    0.80
   4   0 -19    0.36    0.95
  -4   0  20    9.63    4.02
   4   0 -20    6.95    1.59
   4   0 -20    8.88    2.04
   4   0 -20   11.72    2.19
   4   0 -20    6.58    3.88
   4   0 -21    1.77    2.08
   4   0 -21    0.64    0.92
  -4   0  21    1.72    2.85
   4   0 -21    0.43    1.50
   4   0 -22   43.16    4.61
   4   0 -22   45.57    8.78
   4   0 -22   42.77    4.17
  -4   0  23   -1.90    2.72
   4   0 -23    0.70    0.95
   4   0 -23    2.00    2.87
   4   0 -23    3.29    1.78
  -4   0  24  669.33   52.50
   4   0 -24  749.59   45.51
   4   0 -24  601.52   52.47
   4   0 -24  652.53   44.49
   4   0 -25   -0.51    2.20
   4   0 -25    1.35    1.12
   4   0 -26  761.60   50.55
   4   0 -27    3.40    2.02
   4   0 -28 1022.86   66.66
   4   0 -29   -1.22    1.79
   4   0 -30  185.25   13.49
   4   0 -31   -0.55    1.41
  -4  -2 -27    3.10    1.21
  -4   2 -27    4.24    1.47
  -4   2 -26  444.43   29.99
  -4  -2 -26  450.02   29.71
  -4  -2 -25  315.90   24.44
  -4   2 -25  436.85   25.53
  -4   2 -24  563.80   39.63
  -4  -2 -24  610.36   39.33
  -4  -2 -23  513.93   38.77
  -4  -2 -23  577.12   37.58
  -4   2 -22 1083.93   74.67
  -4  -2 -22 1193.18   72.86
  -4   2 -22 1119.55   73.82
  -4  -2 -22 1099.50   74.13
  -4  -2 -21   99.07   10.00
  -4   2 -21  143.95   11.34
   4  -2  21  104.57   15.22
  -4  -2 -21  136.32    9.44
   4   2  21  108.83   15.61
  -4   2 -21  126.45   10.18
  -4  -2 -20   84.95    7.65
  -4   2 -20   72.37    7.88
   4   2  20   63.28   12.04
   4  -2  20   62.95   11.53
  -4   2 -20   71.32    7.06
  -4  -2 -20   91.21    6.80
  -4   2 -19  107.29    8.57
  -4  -2 -19   96.18    8.69
  -4   2 -19  109.55    9.51
  -4  -2 -19   88.02    7.72
   4   2  19   87.03   13.75
  -4  -2 -18  242.00   17.28
  -4  -2 -18  232.05   16.31
  -4   2 -18  218.62   16.69
  -4   2 -18  206.71   16.69
  -4   2 -18  265.27   18.10
  -4  -2 -17  675.22   43.68
  -4   2 -17  683.62   43.01
  -4  -2 -17  613.99   43.05
  -4   2 -17  668.99   43.92
  -4  -2 -17  635.23   42.41
  -4   2 -17  635.40   42.83
  -4   2 -17  625.13   42.93
  -4  -2 -16   64.32    6.29
  -4   2 -16   67.95    6.11
  -4  -2 -16   63.46    6.48
  -4   2 -16   71.44    6.17
  -4  -2 -16   50.67    5.59
  -4   2 -16   77.26    6.40
  -4   2 -16   71.95    6.92
  -4  -2 -15  126.57   11.24
  -4   2 -15  161.25   12.17
  -4   2 -15  139.47   11.15
  -4   2 -15  153.31   11.29
  -4  -2 -15  154.48   11.16
  -4  -2 -15  150.18   11.81
  -4  -2 -15  146.44   17.34
  -4   2 -15  140.31   15.41
  -4   2 -15  155.71   11.39
  -4   2 -14  167.59   12.94
  -4   2 -14  158.97   12.09
  -4  -2 -14  186.90   12.69
  -4  -2 -14  203.51   19.26
  -4   2 -14  145.68   11.33
  -4  -2 -14  180.72   12.63
  -4  -2 -14  164.98   16.95
  -4   2 -14  159.57   12.10
  -4   2 -14  132.74   15.41
  -4  -2 -14  190.61   13.03
  -4   2 -13 1076.01   67.67
  -4  -2 -13  998.46   67.79
  -4   2 -13 1137.43   68.55
  -4  -2 -13 1025.80   74.05
  -4  -2 -13 1046.32   67.83
  -4  -2 -13 1111.67   73.52
  -4   2 -13 1050.53   67.66
  -4   2 -13 1186.21   76.49
  -4  -2 -13  982.80   68.05
  -4  -2 -13 1005.54   73.41
  -4   2 -13 1050.09   72.40
  -4  -2 -12 2573.02  165.43
  -4  -2 -12 2515.41  159.06
  -4  -2 -12 2561.27  159.49
  -4   2 -12 2377.94  163.09
  -4  -2 -12 2781.82  164.80
  -4   2 -12 2349.45  158.81
  -4   2 -12 2714.80  166.92
  -4   2 -12 2540.38  158.91
  -4  -2 -12 2604.01  164.86
  -4  -2 -11 1743.02  120.14
  -4  -2 -11 1912.24  119.96
  -4   2 -11 2116.58  127.49
  -4  -2 -11 1905.02  125.07
  -4   2 -11 1924.60  119.84
  -4   2 -11 1993.98  124.16
  -4  -2 -11 2003.10  124.85
  -4  -2 -11 1728.72  125.01
  -4  -2 -10  466.11   30.41
  -4   2 -10  420.19   29.85
  -4  -2 -10  521.19   34.43
  -4   2 -10  466.18   35.49
  -4   2 -10  364.43   32.54
  -4  -2 -10  487.19   30.13
  -4  -2 -10  517.41   34.86
  -4  -2 -10  483.79   35.10
  -4   2  -9  979.58   68.47
  -4  -2  -9  952.35   63.58
  -4  -2  -9  970.89   67.22
  -4  -2  -9  969.36   67.77
  -4   2  -9 1014.73   63.26
  -4  -2  -9  971.97   63.29
  -4   2  -9  996.76   66.49
  -4  -2  -9 1116.97   67.44
  -4  -2  -8  230.97   19.38
  -4   2  -8  222.32   18.10
  -4  -2  -8  232.45   18.95
  -4  -2  -8  261.61   18.96
  -4   2  -8  210.20   19.30
  -4  -2  -7   69.65    8.28
  -4  -2  -7   89.93    8.60
  -4   2  -7   73.54    7.64
  -4   2  -7   77.16    8.98
  -4  -2  -7   77.45    8.08
  -4  -2  -6  484.35   37.46
  -4   2  -6  572.54   38.47
  -4  -2  -6  577.51   37.23
  -4   2  -6  519.28   36.71
  -4  -2  -5  296.45   20.46
  -4   2  -5  267.28   20.17
  -4  -2  -5  271.74   21.03
  -4  -2  -4  118.78    9.65
  -4  -2  -4  118.05   10.39
  -4   2  -4  111.30    9.58
  -4  -2  -3  270.97   20.58
  -4   2  -3  289.63   20.01
  -4  -2  -2  251.84   18.78
  -4   2  -2  254.16   18.10
  -4  -2  -1 1528.78  102.17
  -4   2  -1 1621.20  101.56
  -4  -2   0  335.75   24.03
  -4   2   0  328.74   23.37
  -4  -2   1  285.96   20.53
  -4   2   1  301.21   20.52
   4  -2  -1  299.04   20.35
   4   2  -1  291.49   20.30
   4  -2  -2  427.62   28.22
  -4  -2   2  459.33   28.27
  -4   2   2  427.65   28.30
   4   2  -2  386.69   28.17
   4   2  -3  961.84   63.25
  -4   2   3 1058.34   62.99
  -4  -2   3  946.41   63.06
  -4   2   3  966.10   63.25
  -4  -2   4  368.90   25.05
  -4   2   4  357.69   25.19
   4   2  -4  375.88   25.16
  -4   2   4  409.23   24.97
  -4  -2   5  516.69   35.11
  -4   2   5  536.47   34.93
  -4   2   5  564.39   35.46
  -4  -2   6 1275.80   79.98
  -4   2   6 1217.15   80.13
  -4   2   7  513.39   34.34
  -4  -2   7  509.29   34.03
   4   2  -8  191.96   15.28
  -4   2   8  207.92   15.53
   4  -2  -8  225.20   15.30
  -4  -2   8  202.69   15.15
  -4  -2   9  163.11   11.95
  -4   2   9  148.67   12.12
   4   2  -9  125.33   11.61
   4  -2  -9  155.66   11.79
  -4   2  10  373.50   26.38
   4  -2 -10  344.81   25.57
   4   2 -10  355.93   26.09
  -4  -2  10  378.16   25.91
   4  -2 -10  371.45   26.35
  -4  -2  11   47.18    5.50
   4   2 -11   46.73    5.68
  -4   2  11   42.40    5.62
   4  -2 -11   39.17    5.00
   4  -2 -11   31.78    5.10
   4  -2 -12  275.57   19.71
  -4  -2  12  233.76   19.44
  -4   2  12  272.17   20.45
   4  -2 -12  258.96   20.13
   4   2 -12  234.51   19.62
   4   2 -13   18.55    3.65
  -4  -2  13   13.04    3.03
  -4   2  13   20.03    3.85
   4  -2 -13   13.79    3.56
   4  -2 -13    5.36    2.22
  -4   2  14  302.83   24.80
   4  -2 -14  275.89   24.21
   4  -2 -14  316.90   24.00
   4   2 -14  290.03   24.24
  -4  -2  15    1.00    1.66
   4  -2 -15    3.38    2.09
  -4   2  15    3.51    2.37
  -4   2  16  245.90   23.61
   4   2 -16  292.98   19.87
   4   2 -16  288.93   19.51
  -4  -2  16  337.87   24.42
   4  -2 -16  279.40   19.58
   4  -2 -16  318.36   24.67
  -4   2  17  201.46   21.07
   4  -2 -17  240.45   17.02
   4  -2 -17  245.57   21.81
   4   2 -17  249.24   16.94
   4   2 -17  265.05   17.41
   4   2 -17  243.68   17.12
  -4  -2  17  237.62   21.04
   4  -2 -18  661.94   46.66
  -4   2  18  563.09   46.69
   4   2 -18  649.78   47.44
   4   2 -18  632.92   41.49
   4  -2 -18  640.35   41.36
  -4  -2  18  663.35   46.71
   4  -2 -18  621.06   47.09
   4   2 -18  612.62   41.54
   4   2 -18  632.41   41.25
  -4  -2  19  285.48   24.90
   4  -2 -19  287.50   25.84
  -4   2  19  269.32   25.53
   4   2 -19  288.41   20.29
   4   2 -19  303.88   20.27
   4   2 -19  274.62   25.66
   4   2 -19  305.22   20.01
   4  -2 -19  277.01   19.96
   4  -2 -19  255.48   24.42
   4   2 -20 1248.48   78.05
   4  -2 -20 1139.37   84.80
   4  -2 -20 1225.70   78.15
  -4  -2  20 1191.76   84.17
  -4   2  20 1083.42   84.54
   4   2 -20 1202.10   78.43
   4   2 -20 1206.50   78.33
   4   2 -20 1193.52   85.33
   4  -2 -20 1307.92   84.84
  -4   2  21  504.68   44.52
   4   2 -21  587.66   38.16
   4  -2 -21  564.94   38.21
   4   2 -21  566.00   45.62
   4   2 -21  559.27   38.37
   4   2 -21  597.66   38.66
   4  -2 -21  609.87   45.09
  -4  -2  21  593.24   44.60
   4   2 -22  338.41   23.01
  -4  -2  22  252.24   27.51
   4   2 -22  318.24   23.21
   4   2 -22  341.85   23.46
   4  -2 -22  362.09   23.28
   4  -2 -22  367.13   30.10
   4   2 -22  358.90   31.15
  -4   2  22  268.70   28.68
   4   2 -23  148.46   11.55
   4   2 -23  157.83   11.78
  -4  -2  23  147.74   16.65
   4  -2 -23  129.32   11.06
   4  -2 -23  143.62   16.82
   4   2 -23  155.11   11.24
   4   2 -23  140.46   17.62
  -4   2  23  105.77   15.55
   4   2 -24   56.86    5.31
   4  -2 -24   59.23    5.66
   4  -2 -24   53.03    9.57
   4  -2 -24   52.27    5.35
   4   2 -24   57.01   10.77
  -4   2  24   42.25    9.09
   4   2 -24   52.11    5.69
  -4  -2  24   28.09    7.27
   4   2 -24   54.82    5.81
   4   2 -25   86.56    7.50
   4   2 -25   89.97    8.24
   4  -2 -25   90.33    7.92
   4   2 -26   89.99    8.06
   4   2 -26   83.69    7.29
   4  -2 -26   89.93    7.75
   4   2 -27   12.36    2.83
   4  -2 -27    9.77    2.30
   4   2 -27    7.83    1.76
   4   2 -28   14.51    2.49
   4   2 -28    7.38    1.69
   4  -2 -28   12.49    2.24
   4  -2 -29   29.59    3.50
   4   2 -29   33.06    3.84
   4  -2 -30  144.01   10.59
   4   2 -30  145.90   10.83
   4   2 -31  628.44   36.91
   4  -2 -31  520.73   36.55
  -4  -4 -26    0.29    0.64
  -4   4 -26    0.20    0.81
  -4   4 -25   20.89    2.72
  -4  -4 -25   15.75    2.14
   4   4  25   21.47    2.36
  -4  -4 -24    1.98    1.30
  -4   4 -24    0.38    1.50
   4   4  24    2.07    1.12
  -4  -4 -24   -0.17    0.31
  -4   4 -23   27.24    3.47
  -4  -4 -23   29.46    2.79
  -4  -4 -23   17.39    2.82
  -4   4 -23   21.22    3.52
  -4   4 -22   14.56    2.70
  -4  -4 -22   17.46    2.33
  -4  -4 -22   13.31    2.55
  -4   4 -21   43.28    5.24
  -4   4 -21   45.89    4.79
  -4  -4 -21   40.03    4.04
  -4  -4 -21   29.38    4.13
  -4   4 -20    6.84    2.13
  -4  -4 -20    7.11    1.86
  -4   4 -20    3.18    2.49
  -4  -4 -20    4.61    1.94
  -4   4 -19 2445.40  151.01
  -4  -4 -19 2498.68  150.56
  -4  -4 -19 2153.58  150.57
   4  -4  19 2280.12  156.77
   4   4  19 2384.53  157.90
  -4   4 -19 2402.83  151.93
  -4  -4 -18   60.89    5.71
   4  -4  18   38.90    8.00
  -4  -4 -18   73.17    6.29
  -4   4 -18   41.49    6.04
  -4   4 -18   55.88    5.74
   4   4  18   49.61    9.56
   4  -4  17 1694.93  114.21
  -4  -4 -17 1791.00  108.04
  -4   4 -17 1690.04  108.11
  -4  -4 -17 1481.65  107.80
  -4  -4 -17 1797.51  116.72
   4   4  17 1804.84  115.52
  -4   4 -17 1752.92  109.31
  -4  -4 -16   14.84    2.93
  -4  -4 -16   15.02    5.28
  -4   4 -15 1134.65   72.54
  -4   4 -15 1199.91   73.78
  -4  -4 -15 1081.12   71.87
  -4  -4 -15 1087.86   72.53
  -4  -4 -15 1189.21   80.30
  -4  -4 -14    2.38    1.31
  -4  -4 -14    5.25    1.79
  -4   4 -14    6.42    2.37
  -4   4 -14    2.47    1.85
  -4  -4 -14    1.67    2.40
  -4   4 -14    3.48    1.48
  -4   4 -14    3.41    1.25
  -4  -4 -14    4.64    1.69
  -4  -4 -13  175.02   18.23
  -4  -4 -13  168.99   13.41
  -4   4 -13  207.42   14.59
  -4  -4 -13  150.50   13.13
  -4  -4 -13  176.87   13.55
  -4  -4 -13  198.74   18.87
  -4  -4 -13  172.93   13.20
  -4   4 -13  174.05   16.47
  -4   4 -13  196.93   13.47
  -4   4 -13  200.03   13.53
  -4   4 -13  182.80   14.36
  -4   4 -13  198.56   13.10
  -4   4 -12   13.71    2.68
  -4  -4 -12    5.84    3.24
  -4   4 -12   10.10    2.95
  -4   4 -12   14.21    2.71
  -4   4 -12   11.02    2.01
  -4  -4 -12    4.08    1.61
  -4   4 -12   15.46    2.25
  -4  -4 -12    7.26    2.02
  -4   4 -12    9.53    1.72
  -4  -4 -12    8.41    1.98
  -4  -4 -12   10.06    3.80
  -4  -4 -12   10.38    2.04
  -4  -4 -12    6.58    1.71
  -4   4 -11  271.55   18.88
  -4  -4 -11  304.32   24.45
  -4   4 -11  280.43   19.27
  -4  -4 -11  278.91   19.37
  -4  -4 -11  289.33   19.74
  -4  -4 -11  276.46   19.50
  -4   4 -11  286.25   20.00
  -4   4 -11  267.18   22.07
  -4  -4 -11  295.63   24.34
  -4   4 -10   57.63    4.48
  -4  -4 -10   51.65    4.79
  -4  -4 -10   49.84    5.04
  -4  -4 -10   44.26    7.41
  -4  -4 -10   52.13    7.86
  -4  -4 -10   50.60    4.87
  -4   4 -10   44.19    6.28
  -4   4  -9  125.20    9.26
  -4  -4  -9  133.00    9.82
  -4  -4  -9  156.44   13.78
  -4  -4  -9  116.15   12.91
  -4   4  -9  142.36   12.07
  -4  -4  -8    4.06    2.56
  -4  -4  -8    8.04    2.92
  -4   4  -8    7.47    1.28
  -4  -4  -8    8.96    1.64
  -4   4  -8    6.80    2.15
  -4  -4  -7  329.79   25.31
  -4  -4  -7  303.93   24.99
  -4   4  -7  348.45   24.07
  -4   4  -6  236.08   16.76
  -4  -4  -6  197.41   17.40
  -4  -4  -5 3164.50  198.46
  -4   4  -5 3422.71  197.30
  -4   4  -5 2940.76  195.68
  -4   4  -4   34.89    4.21
  -4   4  -4   35.89    3.45
  -4   4  -3  422.93   27.53
  -4  -4  -3  385.41   28.25
  -4   4  -2   29.69    3.03
  -4  -4  -2   17.90    3.02
  -4   4  -1   76.45    6.12
  -4  -4  -1   75.94    6.71
   4   4   0    3.47    1.17
  -4  -4   0    1.79    1.21
  -4   4   0    3.54    1.02
   4  -4   0    5.82    1.31
  -4   4   1   54.07    4.69
  -4  -4   1   58.62    5.45
  -4   4   2    5.23    1.68
  -4  -4   2    8.29    2.08
  -4   4   2    6.86    1.48
   4   4  -3  337.35   25.29
  -4   4   3  356.06   24.02
  -4  -4   3  350.33   23.97
  -4   4   3  393.69   25.27
  -4   4   4    2.07    1.15
   4   4  -4    1.64    1.28
  -4   4   4    1.45    1.27
  -4  -4   4    1.04    0.83
  -4   4   5  256.34   18.23
  -4  -4   5  268.56   18.03
  -4   4   5  267.33   19.27
   4   4  -5  281.05   19.62
   4   4  -5  258.20   18.25
  -4   4   6   42.73    4.62
  -4  -4   6   56.60    4.66
   4   4  -6   50.30    4.89
   4  -4  -6   49.50    4.57
  -4   4   6   44.63    5.19
  -4   4   7  657.93   46.41
   4  -4  -7  821.50   47.64
  -4   4   7  704.21   47.68
  -4   4   7  760.85   48.71
  -4  -4   7  769.69   47.43
   4   4  -7  737.13   48.01
  -4  -4   8    0.40    0.99
  -4   4   8    4.40    1.57
  -4   4   8    1.79    1.41
  -4   4   8    2.42    0.95
   4   4  -8    2.10    1.31
   4  -4  -8    6.21    1.57
  -4   4   9 1504.75   99.60
  -4   4   9 1574.42   99.41
   4  -4  -9 1659.27   98.93
   4   4  -9 1482.33   99.32
  -4  -4   9 1640.65   98.88
  -4   4   9 1450.60   97.27
  -4   4  10    0.24    0.88
   4  -4 -10    3.23    1.41
   4   4 -10    0.68    1.39
  -4  -4  10    2.71    1.35
  -4   4  10    4.04    1.93
  -4  -4  11  719.43   45.38
  -4   4  11  675.03   45.94
   4   4 -11  595.88   45.45
   4  -4 -11  670.65   45.06
  -4   4  12   70.44    8.63
   4  -4 -12   71.28    7.89
   4  -4 -13 2222.77  149.80
  -4  -4  13 2440.67  147.99
  -4   4  13 2156.96  148.44
   4   4 -14   13.16    1.98
   4  -4 -14   17.28    4.34
   4   4 -14   15.05    2.14
  -4  -4  14   17.45    3.89
  -4   4  14    7.84    3.05
   4   4 -15  584.83   38.81
   4   4 -15  572.64   38.76
  -4   4  15  562.66   43.27
   4  -4 -15  621.96   39.28
   4  -4 -15  580.44   38.47
   4  -4 -15  639.33   45.16
   4  -4 -15  628.71   42.46
  -4  -4  15  685.62   43.36
   4   4 -15  527.20   42.87
   4  -4 -16   71.90    9.13
   4   4 -16   78.76    6.74
  -4  -4  16   89.92   10.15
   4  -4 -16   96.43    7.32
   4  -4 -16   74.54   10.73
   4   4 -16   77.77    6.74
  -4   4  16   74.31   10.17
   4   4 -16   75.98   10.42
   4  -4 -16   82.58    6.51
   4  -4 -17  904.18   58.81
   4  -4 -17  949.19   63.34
  -4  -4  17 1032.98   64.18
  -4   4  17  849.34   64.08
   4   4 -17  879.98   64.35
   4  -4 -17  902.30   58.31
   4  -4 -17  942.15   65.75
   4   4 -17  865.73   58.60
   4   4 -17  917.20   58.71
   4   4 -18    8.73    2.09
   4   4 -18    9.51    4.21
   4  -4 -18   12.45    4.47
   4  -4 -18   16.48    2.53
   4  -4 -18   13.59    2.03
  -4   4  18   18.73    5.37
   4   4 -18    9.18    1.96
  -4  -4  18    7.93    3.36
   4  -4 -18   17.62    4.71
   4  -4 -19   13.61    4.13
   4  -4 -19   10.46    2.03
   4   4 -19    9.27    2.17
   4   4 -19   13.72    5.17
   4  -4 -19   24.47    6.46
   4   4 -19   18.16    2.79
   4  -4 -19   26.61    2.89
   4   4 -19    6.49    2.08
  -4  -4  19   14.11    4.28
  -4   4  19    9.89    4.38
   4  -4 -20   40.39    3.95
   4   4 -20   31.24    7.25
  -4   4  20   22.46    3.52
   4   4 -20   32.13    3.86
   4  -4 -20   39.46    7.91
   4   4 -20   33.97    4.00
  -4  -4  20   37.06    7.01
   4  -4 -20   33.53    6.47
  -4   4  20   42.96    7.91
   4   4 -20   29.51    3.95
   4   4 -21   13.72    2.71
   4   4 -21   19.29    2.97
  -4   4  21    8.46    2.03
   4  -4 -21    7.22    1.86
  -4  -4  21    7.67    3.86
   4   4 -21   10.92    2.24
   4  -4 -21   16.34    5.89
   4   4 -21   17.49    6.05
   4  -4 -21   10.79    4.08
  -4   4  21    8.82    4.18
   4   4 -22   17.10    2.98
  -4   4  22   24.91    6.15
   4   4 -22   24.29    6.34
   4  -4 -22   25.06    7.40
   4   4 -22   20.38    3.19
   4   4 -22   18.74    3.16
   4  -4 -22   14.50    2.57
  -4   4  22   10.33    2.34
  -4  -4  22   18.69    5.25
   4  -4 -22   11.24    4.32
   4  -4 -22   13.26    2.47
   4   4 -22   24.86    3.32
   4   4 -23  284.92   20.74
   4  -4 -23  275.95   20.19
   4   4 -23  324.79   28.69
  -4   4  23  308.43   27.02
  -4  -4  23  288.35   25.67
   4   4 -23  308.47   20.97
   4  -4 -23  241.22   25.12
  -4   4  23  273.62   20.14
   4   4 -23  320.26   20.79
   4   4 -24    3.39    1.61
   4   4 -24    4.37    1.74
   4   4 -24    0.50    1.69
   4  -4 -24    0.39    1.38
   4  -4 -25  727.16   49.10
   4   4 -25  791.06   49.87
   4   4 -25  738.40   49.63
   4   4 -25  756.36   49.42
   4  -4 -26   38.85    3.92
   4   4 -26   35.83    3.92
   4  -4 -27  941.73   64.93
   4   4 -27 1098.36   65.66
   4   4 -27 1016.28   65.23
   4   4 -28    3.33    1.88
   4   4 -28    9.41    1.90
   4   4 -29   23.28    2.67
   4   4 -29   26.35    2.75
   4  -4 -29   20.95    2.48
  -4  -6 -24    0.12    0.18
  -4  -6 -23  468.44   31.29
   4   6  23  503.93   31.80
  -4  -6 -22  351.60   23.96
   4   6  22  372.76   24.42
  -4  -6 -21   45.09    4.53
   4   6  21   55.63    5.00
  -4   6 -20    2.36    1.58
   4   6  20    8.33    1.88
  -4  -6 -20    3.60    1.51
  -4   6 -20    5.58    1.98
  -4   6 -19   19.36    3.14
  -4   6 -19   19.53    3.24
  -4  -6 -19   26.13    3.17
   4   6  19   22.05    3.07
  -4   6 -18   34.24    4.24
  -4   6 -18   41.53    4.72
  -4   6 -18   40.71    4.75
  -4   6 -17  451.65   31.09
  -4   6 -17  412.17   30.67
  -4  -6 -17  498.91   38.79
  -4  -6 -17  469.94   30.40
  -4   6 -17  475.02   31.27
  -4   6 -16   13.83    2.72
  -4  -6 -16   20.31    2.87
  -4   6 -16   18.62    3.06
  -4  -6 -16   26.51    6.72
  -4   6 -16   11.47    2.54
  -4   6 -15  208.65   15.33
  -4  -6 -15  195.45   21.02
  -4  -6 -15  191.79   14.83
  -4   6 -15  215.02   15.32
  -4   6 -14   43.00    5.22
  -4   6 -14   31.43    4.04
  -4  -6 -14   24.61    3.79
  -4  -6 -14   23.48    6.43
  -4   6 -14   31.47    3.87
  -4  -6 -14   27.26    3.59
  -4   6 -13  426.49   27.73
  -4   6 -13  402.55   28.51
  -4   6 -13  386.32   27.45
  -4  -6 -13  441.53   34.61
  -4  -6 -13  396.37   27.53
  -4  -6 -13  390.58   27.75
  -4   6 -12  459.07   30.45
  -4  -6 -12  422.19   36.01
  -4   6 -12  467.88   31.37
  -4  -6 -12  432.34   30.39
  -4  -6 -11 2517.87  153.45
  -4   6 -11 2286.32  146.28
  -4   6 -11 2163.41  146.96
  -4  -6 -11 2376.45  146.59
  -4   6 -10  242.65   16.12
  -4  -6 -10  210.11   20.63
  -4   6 -10  231.11   16.70
  -4  -6 -10  202.60   16.19
  -4  -6  -9 1085.61   69.99
  -4   6  -9 1105.24   69.49
  -4  -6  -9 1219.67   75.79
  -4   6  -9 1000.55   69.90
  -4   6  -8  120.48    9.17
  -4  -6  -8  123.40    9.70
  -4  -6  -8  110.63   12.82
  -4  -6  -7    5.05    1.61
  -4   6  -6  287.86   20.08
  -4  -6  -6  293.03   20.25
  -4   6  -6  290.88   20.28
  -4   6  -5    3.86    1.37
   4   6   5    1.04    1.93
   4   6   4  308.34   23.99
  -4   6  -4  299.63   20.62
  -4   6  -4  284.66   20.91
   4   6   4  308.45   20.25
  -4   6  -3   76.73    6.42
   4   6   3   83.30    9.20
  -4   6  -3   72.42    6.65
   4   6   3   78.05    6.09
   4   6   2   81.54    6.33
  -4   6  -2   74.77    6.90
   4   6   1 1948.90  119.15
  -4   6  -1 1775.89  119.79
   4   6   0  347.08   22.30
  -4   6   0  319.57   22.92
   4   6  -1  584.67   37.06
  -4   6   1  552.35   37.70
   4   6  -2  711.14   46.28
  -4   6   2  741.82   46.68
   4   6  -2  689.30   49.78
   4   6  -3 1330.99   87.66
   4   6  -3 1342.80   83.87
  -4   6   3 1393.11   87.55
  -4   6   3 1265.32   84.11
  -4   6   4   94.76    7.24
   4   6  -4   86.96    9.71
  -4   6   4  102.96    9.90
   4   6  -4   89.89    6.90
   4   6  -5    4.91    1.17
  -4   6   5   11.25    3.15
  -4   6   5    9.05    1.65
   4   6  -6  241.37   16.27
  -4   6   6  234.91   16.48
  -4   6   6  240.19   19.41
  -4   6   7    4.57    2.04
   4   6  -7    6.34    1.45
  -4   6   7    7.24    1.60
  -4   6   8   27.54    3.14
   4   6  -8   30.07    3.10
  -4   6   9  197.26   17.28
  -4   6   9  208.42   14.42
   4   6  -9  197.11   14.25
  -4   6  10  382.83   26.58
   4   6 -10  406.39   26.40
   4   6 -10  398.04   26.33
  -4   6  10  386.65   29.93
   4   6 -11    2.81    1.56
   4   6 -11    2.05    1.17
  -4   6  11    8.54    2.94
   4   6 -11    5.73    1.41
  -4   6  11    6.26    1.62
  -4   6  12  288.20   20.57
  -4   6  12  276.45   21.88
   4   6 -12  320.69   23.10
   4   6 -12  319.90   20.46
   4   6 -12  298.32   20.38
  -4   6  12  257.53   23.50
  -4   6  13  117.98   11.39
  -4   6  13  138.19   13.50
   4   6 -13  142.99   10.07
   4   6 -13  106.28   11.70
   4   6 -13  159.96   10.20
  -4   6  13  111.21    9.86
   4  -6 -13  119.67   10.27
   4   6 -14  218.38   15.06
  -4   6  14  200.55   17.29
  -4   6  14  232.75   19.39
  -4   6  14  197.05   15.16
   4  -6 -14  225.46   21.65
   4   6 -14  216.83   15.10
   4   6 -14  181.74   17.71
   4  -6 -14  206.00   15.55
   4   6 -15  179.70   13.30
  -4   6  15  178.00   13.44
  -4   6  15  177.98   17.14
   4   6 -15  180.74   13.25
   4  -6 -15  168.92   18.97
   4  -6 -15  187.76   13.92
   4   6 -15  167.20   16.45
   4  -6 -16  321.64   22.08
  -4   6  16  284.12   25.29
   4  -6 -16  320.45   28.84
  -4   6  16  302.29   21.59
  -4   6  17  139.57   10.95
   4  -6 -17  131.83   16.75
   4  -6 -17  137.46   11.15
   4  -6 -18  419.72   36.58
   4  -6 -18  450.10   28.97
  -4   6  18  390.94   28.55
   4   6 -19   96.14    8.47
   4  -6 -19   93.54   14.12
   4  -6 -19  101.00    8.55
  -4   6  19   97.91    8.45
   4  -6 -20  875.96   54.65
   4   6 -20  847.78   54.78
   4  -6 -20  719.77   62.29
   4   6 -20  873.75   55.07
   4   6 -20  770.39   54.03
  -4   6  20  841.32   54.61
   4   6 -21  280.40   21.07
   4  -6 -21  305.31   29.51
  -4   6  21  333.79   21.71
   4   6 -21  323.26   22.03
   4   6 -21  297.51   21.63
   4   6 -22  239.14   17.04
   4   6 -22  220.55   16.43
  -4   6  22  226.27   16.66
   4   6 -22  246.69   17.27
   4   6 -23   45.21    5.06
   4  -6 -23   73.23    5.49
   4   6 -23   55.74    5.74
   4   6 -23   56.59    5.85
  -4   6  23   63.70    5.65
   4   6 -24   31.09    3.93
  -4   6  24   31.12    3.56
   4   6 -24   30.01    3.97
   4   6 -25   77.28    7.18
   4   6 -25   96.50    7.69
   4   6 -26   36.90    4.08
   4   6 -26   42.40    4.35
   4   6 -27    5.04    1.50
   4   6 -28   41.93    3.90
  -4  -8 -22  212.20   14.14
  -4   8 -21    7.32    1.78
  -4  -8 -21    7.07    1.30
   4   8  21    6.66    1.50
  -4   8 -20   59.02    5.49
  -4  -8 -20   60.28    5.12
  -4   8 -20   59.14    5.48
   4   8  20   59.11    5.25
  -4   8 -19   15.25    2.79
  -4   8 -19   20.45    3.08
  -4   8 -18 1572.93   99.82
  -4   8 -18 1574.73   99.81
  -4  -8 -18 1454.39   98.73
   4   8  18 1695.97   99.69
  -4  -8 -17    6.20    1.75
  -4   8 -17   15.21    2.84
   4   8  17   12.92    2.42
   4   8  16 1327.90   82.48
  -4   8 -16 1270.20   82.65
  -4   8 -16 1321.60   82.73
  -4  -8 -16 1212.66   81.96
  -4  -8 -15    3.61    1.49
  -4   8 -15    2.36    1.67
  -4   8 -15    2.78    1.72
   4   8  15    2.95    1.36
  -4  -8 -14   38.40    4.63
   4   8  14   59.00    5.16
   4   8  14   56.01    8.67
  -4   8 -14   38.82    4.83
  -4  -8 -14   36.01    7.59
  -4   8 -14   40.42    4.74
  -4   8 -13   10.59    2.52
   4   8  13   18.86    5.10
  -4  -8 -13   12.13    2.67
  -4  -8 -13    8.59    3.85
  -4  -8 -13   12.70    2.75
  -4   8 -13   19.72    3.04
  -4  -8 -12  424.98   34.73
  -4  -8 -12  401.69   28.69
  -4   8 -12  437.97   29.53
   4   8  12  424.44   34.06
  -4   8 -12  413.99   28.60
  -4  -8 -12  412.13   28.62
   4   8  11    3.12    2.25
  -4   8 -11    5.34    1.93
  -4  -8 -11    3.81    1.83
  -4  -8 -11    8.35    3.91
  -4  -8 -11    4.86    2.03
  -4  -8 -10  196.27   19.12
   4   8  10  190.76   18.65
  -4   8 -10  175.65   13.45
  -4  -8 -10  181.84   13.81
  -4  -8 -10  173.70   13.67
   4   8   9   39.30    7.22
  -4   8  -9   23.86    3.98
  -4  -8  -9   36.18    7.02
  -4  -8  -9   33.40    4.17
  -4   8  -9   25.09    3.51
   4   8   9   39.36    4.01
  -4  -8  -8  797.10   53.81
  -4   8  -8  823.59   54.39
   4   8   8  759.94   58.59
  -4   8  -8  830.60   53.43
   4   8   8  834.34   53.46
   4   8   7    2.90    2.94
  -4  -8  -7    6.41    2.14
  -4   8  -7    2.60    1.67
   4   8   7    1.87    1.35
  -4   8  -7   -0.36    0.93
  -4  -8  -6 1231.58   78.68
   4   8   6 1255.60   84.10
  -4   8  -6 1200.24   77.84
  -4   8  -6 1147.03   78.77
   4   8   6 1291.39   78.32
  -4   8  -6 1179.93   78.95
  -4   8  -5   36.63    4.01
   4   8   5   52.82    8.02
  -4   8  -5   38.46    4.70
  -4   8  -5   42.12    4.94
  -4  -8  -5   54.96    5.10
   4   8   5   50.33    4.60
   4   8   4  798.13   51.09
  -4   8  -4  773.41   51.59
   4   8   4  805.23   56.60
  -4  -8  -4  805.39   51.55
  -4   8  -4  779.47   50.64
  -4   8  -4  750.46   51.69
  -4   8  -3    1.84    1.53
   4   8   3    1.34    1.11
  -4   8  -3    0.87    1.35
  -4   8  -3    2.76    1.48
  -4  -8  -3    3.66    1.65
   4   8   3    1.35    1.58
  -4   8  -3    2.09    0.95
  -4  -8  -2  185.83   13.72
  -4   8  -2  188.35   13.83
   4   8   2  185.33   13.38
   4   8   2  176.73   17.49
  -4   8  -2  170.69   13.78
  -4   8  -2  215.65   14.30
  -4   8  -2  178.71   12.92
  -4   8  -1    0.43    1.29
  -4   8  -1    1.32    1.46
  -4   8  -1    2.14    0.87
   4   8   1    3.87    1.28
  -4   8  -1    0.79    1.14
  -4  -8  -1    1.92    1.23
  -4  -8   0   52.08    5.05
  -4   8   0   57.19    5.49
  -4   8   0   42.51    4.86
   4   8   0   56.00    4.87
  -4   8   1   14.56    2.59
   4   8  -1   19.66    2.48
  -4   8   1   11.47    2.24
  -4   8   2  195.29   15.01
  -4   8   2  205.35   14.57
   4   8  -2  206.19   14.43
  -4   8   3   29.03    3.48
   4   8  -3   22.39    5.15
   4   8  -3   15.49    2.47
  -4   8   3   21.71    2.77
   4   8  -4    7.43    1.67
  -4   8   4    7.27    1.83
  -4   8   5   10.53    2.17
   4   8  -5    6.32    1.65
   4   8  -6  210.54   14.78
  -4   8   6  198.39   15.00
  -4   8   6  210.53   19.30
   4   8  -7   17.32    2.55
   4   8  -7   12.69    2.11
  -4   8   7   15.38    2.66
  -4   8   7   12.13    4.12
   4   8  -8    4.45    1.39
   4   8  -8    5.30    1.60
   4   8  -8    3.43    1.32
   4   8  -9   15.00    2.62
   4   8  -9   18.78    2.55
   4   8  -9   21.37    2.82
  -4   8   9   13.87    4.28
  -4   8   9   16.54    2.79
  -4   8  10  307.64   21.59
  -4   8  10  257.49   25.16
   4   8 -10  317.79   21.12
  -4   8  11   18.52    4.72
   4   8 -11   22.73    2.95
  -4   8  11   16.83    2.90
   4   8 -12  103.99    8.42
   4  -8 -12  105.40    9.04
  -4   8  12   97.81   12.06
  -4   8  12   98.12    8.67
   4   8 -13    5.71    1.73
  -4   8  13    5.78    2.95
  -4   8  13    5.20    1.79
   4  -8 -13    7.82    2.27
   4   8 -14  160.24   11.97
   4  -8 -14  141.36   17.94
  -4   8  14  112.50   14.64
   4  -8 -14  161.56   12.55
  -4   8  14  165.03   12.32
   4   8 -15    2.61    1.58
   4  -8 -15    2.14    3.07
   4  -8 -15    4.76    2.06
  -4   8  15    2.89    1.50
   4  -8 -16   28.18    7.36
   4   8 -16   18.30    3.19
   4  -8 -16   38.50    4.41
  -4   8  16   32.65    4.01
   4   8 -17   59.34    5.77
   4  -8 -17   64.65    6.22
  -4   8  17   46.21    5.48
   4  -8 -17   56.52   10.44
   4  -8 -18   98.35    8.16
   4  -8 -18   68.80   12.06
   4   8 -18   75.73    7.61
   4  -8 -18   94.89    7.72
  -4   8  18   99.18    8.12
  -4   8  19    4.02    1.82
   4   8 -19    3.11    1.49
   4  -8 -19    4.50    1.72
   4  -8 -19    3.08    1.34
  -4   8  20   85.80    7.20
   4   8 -20   75.44    7.29
   4  -8 -20   73.37    6.87
   4   8 -20   78.82    7.05
   4   8 -21    1.82    1.32
  -4   8  21    3.85    1.47
   4   8 -21    3.71    1.68
   4   8 -22   91.84    7.88
   4   8 -22   95.48    8.09
  -4   8  22   96.74    7.74
   4  -8 -23    5.13    1.22
  -4   8  23    4.72    1.47
   4   8 -23    2.70    1.38
   4   8 -24  430.09   10.29
   4  -8 -24    0.17    0.20
   4   8 -25    2.03    1.03
  -4 -10 -20   19.56    1.82
  -4 -10 -19   53.89    4.24
  -4 -10 -18  165.89    4.93
   4  10  18  171.57    5.48
  -4  10 -17  136.71    9.94
  -4 -10 -17  122.13    9.35
  -4  10 -16  106.21    4.95
  -4 -10 -16   78.74    3.74
  -4  10 -15    5.43    1.68
  -4 -10 -15    8.30    1.66
  -4 -10 -14    6.58    1.71
  -4  10 -14    4.49    1.30
  -4  10 -14    4.35    1.59
  -4  10 -13  248.47   17.34
  -4  10 -13  254.68   17.72
  -4 -10 -13  246.38   17.60
  -4 -10 -12  607.42   39.15
  -4 -10 -12  597.97   39.04
   4  10  12  649.02   39.16
  -4  10 -12  555.96   38.85
  -4  10 -12  549.18   38.46
  -4 -10 -11  554.89   37.11
  -4  10 -11  558.62   37.01
  -4 -10 -11  542.42   37.04
   4  10  11  560.91   36.97
  -4 -10 -10  220.99   16.84
   4  10  10  259.41   16.96
  -4 -10 -10  217.56   16.75
   4  10   9  712.28   45.70
  -4 -10  -9  684.15   45.80
   4  10   9  644.36   51.09
  -4 -10  -8  345.45   29.26
   4  10   8  329.79   29.51
  -4 -10  -8  348.76   24.28
   4  10   8  351.58   24.11
  -4 -10  -7  157.40   17.04
  -4 -10  -7  159.47   12.79
   4  10   7  167.68   17.59
  -4  10  -7  169.61   13.44
   4  10   7  173.97   12.74
  -4  10  -6  466.20   32.10
   4  10   6  481.30   37.46
   4  10   6  462.69   31.20
  -4 -10  -6  449.45   31.42
  -4  10  -5   31.73    4.59
   4  10   5   45.09    4.49
   4  10   5   37.24    7.23
  -4 -10  -5   36.66    4.51
  -4  10  -5   37.43    4.97
  -4  10  -4  215.93   16.93
  -4  10  -4  212.19   16.78
   4  10   4  221.05   21.54
   4  10   4  243.05   16.37
  -4 -10  -4  220.78   16.50
  -4  10  -3    1.13    1.56
  -4  10  -3    2.51    1.17
   4  10   3    1.63    2.34
  -4 -10  -3    4.60    1.79
  -4  10  -3    0.54    1.73
   4  10   3    3.66    1.55
  -4  10  -2   21.77    2.69
  -4  10  -2   19.02    3.44
   4  10   2   17.83    2.80
  -4  10  -2   17.09    3.19
  -4 -10  -2   22.31    3.30
   4  10   2   21.23    5.54
   4  10   1  144.05   16.84
  -4 -10  -1  173.37   12.90
  -4  10  -1  165.74   13.06
   4  10   1  170.63   12.62
  -4  10  -1  165.13   13.31
  -4  10   0  227.61   17.13
  -4  10   0  275.49   17.50
   4  10   0  231.63   16.79
  -4 -10   0  224.45   16.93
  -4  10   0  215.95   17.37
  -4 -10   1  590.19   40.09
   4  10  -1  600.06   39.91
  -4  10   1  666.18   40.55
  -4  10   1  569.45   40.04
  -4  10   1  594.35   40.67
  -4  10   2  597.24   36.23
  -4  10   2  489.55   36.12
  -4  10   2  531.53   35.67
  -4 -10   2  510.80   35.59
   4  10  -2  540.83   35.65
  -4  10   3  151.27   11.60
   4  10  -3  140.39   11.14
  -4  10   4   65.72    6.29
   4  10  -4   60.73    5.86
   4  10  -5    0.40    1.15
  -4  10   5    3.43    1.57
  -4  10   6   86.45    7.19
   4  10  -6   71.26    6.42
  -4  10   6   74.41    6.93
   4  10  -7   10.00    2.13
   4  10  -7   10.14    1.85
   4  10  -7   14.89    2.52
  -4  10   7   12.25    2.66
  -4  10   7   10.93    2.56
   4  10  -8   34.11    3.90
  -4  10   8   25.35    3.81
   4  10  -8   35.05    3.55
  -4  10   8   26.40    4.05
   4  10  -8   34.66    3.91
   4  10  -9   40.69    4.31
   4  10  -9   33.26    3.83
  -4  10   9   43.56    4.87
  -4  10   9   37.81    4.59
  -4  10  10  381.49   24.88
  -4  10  10  381.99   24.75
   4  10 -10  341.93   23.70
   4 -10 -10  342.28   24.70
   4  10 -10  318.63   23.92
   4  10 -11   12.72    2.51
  -4  10  11   14.87    2.79
   4  10 -11   10.11    2.01
   4 -10 -11   11.36    2.53
  -4  10  12    3.41    1.66
   4  10 -12    0.36    1.06
   4  10 -12    0.83    1.37
   4  10 -13  128.60    9.88
   4  10 -13  117.69    9.99
  -4  10  13  138.97   10.65
   4 -10 -14    7.69    2.26
   4  10 -14    5.77    1.74
  -4  10  14    8.36    2.08
  -4  10  15  113.15    9.42
   4 -10 -15  112.45    9.44
   4  10 -15  115.23    9.01
   4 -10 -16   16.27    2.80
   4  10 -16   14.96    2.38
  -4  10  16   20.42    2.98
   4 -10 -17    7.10    1.87
   4 -10 -17    3.74    1.44
   4  10 -17    4.35    1.47
  -4  10  17    4.78    1.74
   4 -10 -18   21.98    2.77
   4  10 -18   23.19    2.86
   4 -10 -18   26.80    3.23
  -4  10  18   21.03    2.99
  -4  10  19   26.28    2.75
   4 -10 -19   25.99    2.69
   4  10 -19   24.55    2.48
   4  10 -20  541.94   36.15
  -4  10  20  566.67   36.37
   4  10 -21   34.94    3.36
   4  10 -22   18.32    2.10
   4 -10 -22   17.56    1.88
   4  10 -23   10.76    1.59
   4  10 -23   11.26    1.44
  -4 -12 -15   82.74    5.91
  -4 -12 -14   19.15    2.03
  -4 -12 -14   22.45    2.16
  -4 -12 -13  498.55   32.31
   4  12  12    8.69    1.54
  -4 -12 -12    8.84    1.57
  -4 -12 -11  684.28   47.90
   4  12  11  811.44   48.17
   4  12  10  129.95    9.65
  -4 -12  -9  262.47   18.70
   4  12   9  285.88   18.86
   4  12   8   39.95    3.91
  -4 -12  -8   36.37    3.83
  -4 -12  -8   34.64    3.94
  -4 -12  -7   44.10    4.49
   4  12   7   56.77    4.87
  -4 -12  -7   45.68    4.75
  -4 -12  -6    1.98    1.26
  -4 -12  -6    2.31    1.36
   4  12   6    2.36    1.29
  -4 -12  -5  249.10   17.84
   4  12   5  262.65   17.98
  -4 -12  -5  257.25   18.25
  -4 -12  -4   11.43    2.11
  -4 -12  -4    7.12    2.11
   4  12   4    6.71    1.70
  -4 -12  -3   36.76    3.88
  -4 -12  -3   28.04    3.90
   4  12   3   35.40    3.82
  -4 -12  -2   63.03    6.02
  -4 -12  -2   56.90    5.58
  -4  12  -2   62.56    6.24
   4  12   2   66.04    5.77
  -4 -12  -1   33.37    3.64
  -4  12  -1   27.67    3.96
  -4 -12  -1   27.66    3.72
   4  12   1   30.20    3.55
  -4 -12   0   38.55    3.95
  -4  12   0   38.48    4.53
   4  12   0   29.17    3.39
  -4 -12   0   36.61    4.38
   4  12   0   39.51    4.06
  -4  12   1  321.52   23.80
   4  12  -1  330.97   22.78
  -4 -12   1  356.20   23.78
   4  12  -1  350.45   23.26
   4  12  -2    2.10    1.28
  -4 -12   2    4.28    1.75
   4  12  -2    7.59    1.57
  -4  12   2    2.95    1.54
  -4  12   3   19.02    3.24
   4  12  -3   22.00    2.72
   4  12  -3   24.78    2.99
  -4 -12   3   21.61    3.12
  -4  12   4    8.16    2.18
   4  12  -4    6.67    1.53
   4 -12  -4   10.17    2.18
  -4 -12   4    6.81    1.88
   4  12  -4    5.61    1.58
   4 -12  -5    5.30    2.04
   4  12  -5    7.65    1.60
   4 -12  -6   69.56    6.68
  -4  12   6   78.59    6.40
   4  12  -6   70.80    6.12
  -4  12   7   24.39    2.95
   4 -12  -7   21.55    3.26
   4  12  -7   23.61    2.90
  -4  12   8   23.56    2.81
   4 -12  -8   28.28    3.43
   4 -12  -9  107.14    9.08
  -4  12   9  112.61    9.26
   4  12  -9  111.09    8.63
  -4  12   9  117.62    8.71
  -4  12  10    3.26    1.54
  -4  12  10   -0.28    0.93
   4 -12 -10    0.40    1.43
   4  12 -10    2.39    1.29
   4 -12 -11   30.54    3.88
  -4  12  11   35.63    3.57
   4 -12 -12    7.79    1.90
  -4  12  12    6.62    1.67
   4 -12 -13  229.24   16.68
  -4  12  13  248.83   16.92
   4 -12 -14   10.26    2.02
  -4  12  14   11.50    2.04
   4 -12 -15   76.19    6.32
  -4  12  15   88.37    6.72
   4 -12 -16   45.91    3.94
   4  12 -16   41.16    3.81
  -4  12  16   40.16    3.92
   4 -12 -16   40.30    3.68
   4 -12 -17   86.29    6.75
   4  12 -17  112.16    7.25
   4  12 -18    1.88    0.81
  -4 -14  -7  133.03    9.04
  -4 -14  -6  199.01   13.28
  -4 -14  -5  176.35   11.92
  -4 -14  -4  208.13   13.97
  -4 -14  -3  110.27    7.85
  -4 -14  -2   44.50    3.72
  -4 -14  -1   68.71    5.22
  -4 -14   0    2.54    0.90
   4 -14   0    3.32    0.90
   4 -14  -1   13.17    1.65
   4 -14  -1   14.93    1.88
   4 -14  -2    6.11    1.18
   4 -14  -3    6.80    1.32
   4 -14  -4    3.02    1.01
   4 -14  -5   52.17    4.30
   4 -14  -5   53.54    4.48
   4 -14  -6    8.17    1.34
   4 -14  -6    7.81    1.47
   4 -14  -7   17.41    2.01
   4 -14  -7   16.32    1.93
   4 -14  -8    2.72    0.84
   4 -14  -8    2.33    0.85
   4 -14  -9    4.58    1.00
   4 -14  -9    4.26    1.03
   4 -14 -10   14.31    1.64
   4 -14 -10   13.10    1.55
  -5  -1 -27    2.61    1.15
  -5  -1 -26   39.75    3.96
  -5  -1 -25   84.51    7.22
  -5  -1 -24  242.56   17.59
  -5  -1 -23   66.42    6.61
  -5  -1 -22  212.12   16.18
  -5  -1 -21  365.51   26.71
  -5  -1 -21  385.18   25.24
  -5   1 -20   58.34    5.76
  -5  -1 -20   47.92    5.99
  -5  -1 -20   59.78    5.11
   5   1  20   56.59   10.67
   5  -1  20   49.19    9.99
  -5  -1 -19   81.57    8.15
  -5   1 -19   96.02    7.89
  -5  -1 -19   81.92    6.92
  -5  -1 -18 1396.67   89.14
  -5   1 -18 1269.17   88.30
  -5  -1 -18 1425.78   87.78
  -5  -1 -18 1385.99   89.40
  -5   1 -17   21.84    3.08
  -5  -1 -17   13.63    2.94
  -5  -1 -17    9.37    2.79
  -5  -1 -17    9.16    1.97
  -5   1 -17   18.21    2.26
  -5  -1 -16 1055.79   65.39
  -5  -1 -16 1074.83   66.60
  -5   1 -16 1030.78   65.91
  -5   1 -16  941.96   64.90
  -5  -1 -16 1031.32   65.80
  -5  -1 -16 1031.75   66.74
  -5  -1 -16  908.48   73.86
  -5  -1 -15   56.23   10.43
  -5  -1 -15   60.82    6.56
  -5  -1 -15   73.64    6.54
  -5  -1 -15   66.60    6.96
  -5  -1 -15   71.05    6.14
  -5   1 -15   74.23    5.88
  -5   1 -14   68.26    6.09
  -5  -1 -14   70.60   11.33
  -5   1 -14   74.32    6.73
  -5  -1 -14   90.40    7.45
  -5  -1 -14   82.77    7.13
  -5  -1 -14   76.90    7.29
  -5  -1 -14   77.30    6.52
  -5  -1 -14   95.15    7.03
  -5   1 -14   82.91    6.91
  -5  -1 -13  219.49   16.17
  -5   1 -13  252.75   15.83
  -5  -1 -13  196.95   20.92
  -5  -1 -13  210.04   15.74
  -5  -1 -13  194.84   15.18
  -5   1 -13  235.79   15.11
  -5  -1 -13  207.18   15.86
  -5  -1 -13  222.81   15.61
  -5   1 -12  652.64   44.20
  -5  -1 -12  682.61   44.48
  -5   1 -12  694.36   44.74
  -5   1 -12  697.16   44.14
  -5  -1 -12  703.39   50.81
  -5  -1 -12  648.13   44.22
  -5  -1 -12  676.61   44.64
  -5  -1 -11  452.72   31.42
  -5  -1 -11  458.70   31.80
  -5  -1 -11  426.05   36.37
  -5   1 -11  527.57   31.66
  -5  -1 -10 1272.83   78.48
  -5  -1 -10 1205.17   78.79
  -5  -1 -10 1178.73   82.38
  -5  -1 -10 1139.31   83.49
  -5   1 -10 1229.99   78.44
  -5  -1  -9   10.88    3.35
  -5  -1  -9   13.31    2.04
  -5  -1  -9   16.63    4.41
  -5  -1  -8  229.24   15.52
  -5  -1  -8  211.68   18.04
  -5   1  -8  230.65   15.55
  -5  -1  -8  228.33   19.57
  -5  -1  -7   16.88    3.47
  -5  -1  -7   11.76    3.52
  -5  -1  -6  481.82   35.89
  -5  -1  -6  511.86   34.70
  -5  -1  -5 1127.36   79.24
  -5  -1  -5 1247.35   78.11
  -5  -1  -4 1481.72  103.77
  -5  -1  -4 1666.62  102.47
  -5  -1  -3   27.91    4.76
  -5  -1  -3   35.34    3.81
  -5  -1  -2    2.21    2.62
  -5  -1  -2    8.97    1.75
  -5  -1  -1  345.25   25.76
  -5  -1  -1  349.13   23.09
  -5  -1   0  927.05   63.58
  -5  -1   0  956.30   60.51
  -5  -1   1  123.84   11.07
  -5  -1   1  143.80    9.31
  -5  -1   2 1296.10   81.73
   5  -1  -2 1241.62   81.98
   5  -1  -3   30.49    3.81
  -5  -1   3   36.03    3.72
  -5  -1   4  410.85   27.78
   5   1  -4  420.38   26.94
  -5  -1   5  228.77   16.01
  -5   1   6   36.95    2.82
  -5  -1   6   43.81    4.14
  -5  -1   7  115.36    9.17
  -5  -1   8  187.36   13.44
   5  -1  -8  166.93   13.11
  -5  -1   9  728.02   47.64
   5  -1  -9  702.52   47.41
   5  -1 -10  270.04   19.97
   5  -1 -10  256.98   19.75
  -5  -1  10  291.60   20.24
   5  -1 -11   52.37    6.52
   5  -1 -11   67.10    6.93
   5  -1 -12    6.34    2.42
  -5  -1  12    4.36    2.10
   5  -1 -12    4.88    1.94
  -5  -1  13  174.85   15.31
   5  -1 -13  210.96   15.94
   5  -1 -13  170.83   15.16
   5  -1 -14   38.06    5.78
   5  -1 -14   37.36    5.91
  -5  -1  15  484.61   33.06
   5  -1 -15  413.36   32.24
   5  -1 -15  418.77   32.10
   5  -1 -16    7.37    2.47
   5  -1 -16    4.40    2.58
  -5  -1  16    2.18    1.81
   5  -1 -16    4.00    1.15
   5   1 -16    0.92    1.03
   5   1 -17   41.70    3.91
   5   1 -17   36.96    3.62
   5  -1 -17   38.52    3.97
   5   1 -17   33.66    3.87
  -5  -1  17   51.21    7.44
   5  -1 -17   48.67    7.31
   5   1 -18   86.55    7.27
  -5  -1  18   92.22   11.10
   5   1 -18   94.06    7.14
   5  -1 -18   80.23   10.68
   5  -1 -18   92.46    7.46
   5  -1 -19   23.32    2.92
   5   1 -19   18.56    2.65
  -5  -1  19   18.30    4.82
   5   1 -19   19.61    2.53
   5   1 -20    6.47    1.69
   5   1 -20    5.65    1.52
   5  -1 -20   18.63    4.99
  -5  -1  20   -1.51    2.83
   5  -1 -20   15.37    2.28
  -5  -1  21    9.70    4.12
   5   1 -21   16.77    2.59
   5  -1 -21   13.09    2.46
   5   1 -21   17.39    2.45
   5  -1 -21   15.02    5.06
   5  -1 -22   28.45    6.53
   5   1 -22   18.24    2.69
  -5  -1  22   15.34    5.04
   5  -1 -22   22.72    3.41
   5   1 -22   20.85    3.16
   5  -1 -23    0.44    1.42
   5   1 -23   -0.36    1.09
  -5  -1  23    3.55    2.93
   5  -1 -23   -1.87    2.19
  -5   1  23   -1.92    3.18
   5  -1 -24   90.68    7.76
  -5  -1  24  105.29   13.44
   5   1 -24   78.21    7.15
   5  -1 -24  101.19   13.41
  -5   1  24   94.42   13.23
   5   1 -25   81.36    7.26
   5  -1 -25   96.57    7.89
   5   1 -26  304.34   21.80
   5  -1 -26  343.80   22.82
   5   1 -27   18.31    2.49
   5  -1 -27   14.20    2.69
   5  -1 -28   95.77    8.16
   5  -1 -29   63.45    5.91
   5  -1 -30   11.91    2.22
   5  -1 -31   -0.55    1.12
  -5  -3 -26    0.56    0.80
  -5   3 -26    2.89    1.23
  -5  -3 -25  324.69   23.79
  -5   3 -25  400.63   24.51
   5   3  25  366.32   23.83
  -5  -3 -24  241.93   15.81
  -5   3 -24  199.95   15.94
  -5  -3 -23 1034.56   64.33
  -5  -3 -23  890.79   64.99
  -5   3 -23 1123.68   66.18
  -5   3 -22   24.63    4.25
  -5   3 -22   29.38    3.98
  -5  -3 -22   36.21    4.26
  -5  -3 -22   39.54    3.58
  -5  -3 -21  223.26   17.93
  -5   3 -21  240.64   18.83
  -5  -3 -21  265.34   17.40
  -5   3 -21  260.71   18.24
  -5  -3 -20    4.05    1.80
  -5   3 -20    4.38    1.77
  -5  -3 -20    7.33    1.75
  -5   3 -20    0.67    2.02
   5   3  19    6.00    3.73
  -5   3 -19   16.08    2.92
  -5  -3 -19   10.93    2.08
  -5  -3 -19    3.65    1.99
   5  -3  19    1.80    2.63
  -5   3 -19   12.49    3.23
  -5  -3 -18  252.92   18.55
  -5   3 -18  247.38   19.35
  -5   3 -18  240.52   18.23
  -5  -3 -18  260.71   17.95
  -5   3 -17  335.83   22.91
  -5  -3 -17  293.17   22.84
  -5   3 -17  344.32   24.18
  -5  -3 -17  330.09   22.57
  -5  -3 -16  306.89   21.78
  -5  -3 -16  303.00   21.28
  -5   3 -16  325.51   22.82
  -5   3 -16  301.15   21.43
  -5   3 -16  284.91   21.14
  -5  -3 -16  318.79   22.09
  -5  -3 -15   12.00    5.29
  -5   3 -15   10.25    3.72
  -5  -3 -15   14.31    2.77
  -5  -3 -15   16.96    2.87
  -5   3 -15   11.02    2.19
  -5  -3 -15   14.10    2.45
  -5   3 -15   11.55    3.06
  -5  -3 -15   17.61    3.02
  -5  -3 -15    8.78    3.93
  -5   3 -15   11.74    2.34
  -5  -3 -14   22.95    5.85
  -5  -3 -14   22.60    6.07
  -5   3 -14   27.30    5.68
  -5  -3 -14   32.39    3.87
  -5  -3 -14   33.36    3.90
  -5   3 -14   28.86    4.16
  -5   3 -14   24.84    4.13
  -5   3 -14   30.10    3.56
  -5  -3 -14   30.41    3.93
  -5   3 -14   23.51    3.20
  -5  -3 -14   30.58    3.21
  -5   3 -14   21.28    3.15
  -5  -3 -13  872.21   59.03
  -5   3 -13  918.92   58.38
  -5  -3 -13  831.37   58.66
  -5   3 -13  968.40   59.88
  -5   3 -13  988.73   59.82
  -5   3 -13  951.58   58.60
  -5   3 -13  895.87   63.17
  -5  -3 -13  869.65   58.76
  -5  -3 -13  936.29   66.11
  -5  -3 -13  958.75   64.93
  -5  -3 -13  853.23   58.05
  -5  -3 -12   88.78    7.26
  -5  -3 -12   71.12    6.68
  -5   3 -12   71.11    7.25
  -5  -3 -12   84.18    6.94
  -5  -3 -12   94.39   12.09
  -5   3 -12   76.53    9.50
  -5   3 -12   76.60    6.37
  -5   3 -12   65.97    6.29
  -5  -3 -12  108.25   11.62
  -5  -3 -11 2890.71  179.90
  -5  -3 -11 2589.11  180.46
  -5  -3 -11 2682.99  174.50
  -5  -3 -11 2763.38  174.83
  -5   3 -11 2798.65  174.28
  -5   3 -11 2787.76  178.53
  -5   3 -11 2753.44  174.17
  -5  -3 -10 1136.62   74.33
  -5  -3 -10 1248.49   79.25
  -5  -3 -10 1216.55   74.70
  -5   3 -10 1120.62   73.96
  -5   3 -10 1102.83   77.59
  -5  -3 -10 1218.51   80.28
  -5   3  -9 1669.58  109.15
  -5   3  -9 1665.10  105.54
  -5  -3  -9 1682.40  111.25
  -5  -3  -9 1615.06  106.04
  -5  -3  -9 1789.69  110.35
  -5  -3  -8   61.87    8.19
  -5   3  -8   78.42    8.23
  -5  -3  -8   81.15    9.56
  -5  -3  -7  167.23   15.81
  -5  -3  -7  169.18   15.05
  -5   3  -7  190.72   14.91
  -5   3  -6   31.80    2.93
  -5  -3  -6   31.69    5.19
  -5  -3  -5  646.30   46.19
  -5  -3  -5  692.90   45.63
  -5   3  -5  659.63   44.98
  -5  -3  -4  224.94   15.94
  -5  -3  -4  203.25   16.38
  -5   3  -4  180.35   15.06
  -5  -3  -3 2033.21  130.94
  -5   3  -3 2023.94  129.83
  -5  -3  -2    8.96    2.49
  -5   3  -2   26.49    3.32
  -5  -3  -1   21.25    3.71
  -5   3  -1   26.76    3.50
  -5  -3   0 1384.90   86.84
  -5   3   0 1287.53   85.79
  -5  -3   1 1502.28   92.09
  -5   3   1 1292.07   91.03
   5  -3  -1 1373.13   90.52
   5   3  -1 1492.38   90.70
   5   3  -2  446.18   30.40
  -5   3   2  434.27   30.33
  -5  -3   2  467.66   30.47
   5   3  -2  445.70   30.14
   5  -3  -2  443.81   29.93
   5   3  -3  876.45   58.29
  -5   3   3  898.15   58.17
  -5  -3   3  904.04   57.97
   5   3  -4  999.13   64.78
  -5   3   4  987.02   64.53
  -5   3   4 1036.99   64.36
  -5  -3   4  969.25   64.20
  -5   3   5  635.44   45.12
  -5  -3   5  721.33   45.03
   5   3  -5  674.19   45.43
  -5   3   5  725.25   45.14
  -5   3   6  357.57   24.68
  -5   3   6  353.18   24.38
  -5  -3   6  368.16   24.38
  -5   3   7 1653.35  104.67
  -5   3   7 1566.21  104.97
  -5  -3   7 1682.02  104.71
  -5   3   8   27.68    3.60
  -5  -3   8   35.23    3.87
  -5   3   8   28.02    3.93
   5   3  -9  301.06   22.58
  -5   3   9  308.89   22.03
   5  -3  -9  318.17   22.25
  -5   3   9  297.77   22.56
  -5  -3   9  340.05   22.43
   5   3 -10   30.09    4.45
   5  -3 -10   35.01    4.29
  -5  -3  10   38.65    4.49
  -5   3  10   28.41    4.43
  -5  -3  11  107.82   10.07
   5   3 -11  112.08   10.63
  -5   3  11  109.99   10.77
   5  -3 -11  128.92   10.42
  -5  -3  12  190.48   14.70
   5  -3 -12  166.15   15.14
   5  -3 -12  158.52   14.02
   5   3 -12  185.02   14.99
  -5   3  12  166.41   14.94
   5  -3 -13  598.99   42.50
  -5  -3  13  659.80   41.96
  -5   3  13  559.84   42.10
   5  -3 -13  563.44   41.01
   5   3 -13  588.29   41.98
  -5  -3  14  246.70   18.23
  -5   3  14  185.40   18.01
   5  -3 -14  202.68   18.30
   5  -3 -14  200.37   17.14
   5   3 -14  220.82   18.28
   5   3 -15  160.70   14.85
  -5  -3  15  161.66   14.48
  -5   3  15  141.39   14.70
   5   3 -15  164.57   11.09
   5  -3 -15  130.56   14.50
   5  -3 -15  129.13   13.31
   5  -3 -16   58.41    8.29
   5  -3 -16   56.69    4.49
   5   3 -16   43.75    4.25
  -5   3  16   48.00    7.87
  -5  -3  16   46.13    6.99
   5   3 -16   37.65    4.32
   5   3 -17   83.03    7.12
   5   3 -17   92.36    7.09
  -5   3  17   69.62   10.44
   5  -3 -17   83.05    6.81
  -5  -3  17  104.26   10.99
   5  -3 -17   75.02   10.74
   5   3 -18    9.70    1.84
   5  -3 -18    5.01    1.48
  -5   3  18    3.13    2.92
   5   3 -18    9.73    1.90
   5  -3 -18    3.11    3.43
   5   3 -18    6.03    3.08
  -5  -3  18    3.90    2.87
  -5   3  19   91.90   12.90
   5  -3 -19  108.35    8.54
   5   3 -19  111.94    8.89
   5   3 -19   97.24    8.67
  -5  -3  19  107.38   12.78
   5  -3 -19  104.04   12.59
   5   3 -19   93.00   12.83
   5   3 -19  121.20    8.81
   5  -3 -19  147.20   15.04
   5   3 -20   50.48    4.96
   5   3 -20   41.29    4.73
   5  -3 -20   53.75    4.80
   5  -3 -20   48.07    8.82
   5   3 -20   41.35    4.60
  -5   3  20   40.64    8.13
  -5  -3  20   50.38    8.46
   5   3 -20   45.62    8.47
   5  -3 -20   53.78    8.23
   5  -3 -21  246.52   22.23
  -5   3  21  171.77   21.36
   5  -3 -21  225.24   22.85
   5   3 -21  185.58   21.81
   5   3 -21  238.38   16.70
  -5  -3  21  224.10   21.83
   5   3 -21  259.40   17.16
   5   3 -21  251.83   17.14
   5  -3 -21  246.80   16.67
  -5   3  21  206.12   16.38
  -5   3  22   36.15    8.78
   5   3 -22   51.42   10.04
   5  -3 -22   62.20    9.88
   5   3 -22   69.92    6.10
   5  -3 -22   73.43    6.07
   5   3 -22   60.40    6.15
   5   3 -22   62.83    6.16
   5  -3 -22   54.51   10.04
  -5  -3  22   51.53    9.18
   5   3 -23  280.55   20.01
  -5  -3  23  352.55   27.06
  -5   3  23  214.13   25.01
   5  -3 -23  277.76   19.54
   5  -3 -23  223.26   24.21
   5   3 -23  321.36   28.15
   5   3 -23  267.30   19.84
   5   3 -23  294.91   19.75
  -5  -3  24   11.48    4.31
  -5   3  24    7.69    3.57
   5   3 -24    5.27    1.86
   5   3 -24    2.11    3.05
   5   3 -24    8.78    2.00
   5  -3 -24    6.02    1.74
   5   3 -24    9.14    2.35
   5  -3 -24    3.49    2.53
   5   3 -25   26.86    4.02
   5   3 -25   35.40    3.95
   5  -3 -25   29.67    3.83
   5   3 -25   33.29    4.11
   5   3 -26    9.66    1.99
   5   3 -26    5.89    2.01
   5   3 -27   88.68    7.34
   5   3 -27   72.80    6.55
   5  -3 -27   73.33    6.66
   5   3 -28   -0.31    1.00
   5   3 -28    0.84    1.43
   5  -3 -28    2.09    1.35
   5  -3 -29    6.95    1.66
   5   3 -29    7.93    1.89
   5   3 -29    6.50    1.48
   5  -3 -30   23.81    2.57
   5   3 -30   18.10    2.56
  -5  -5 -24   -0.13    0.19
  -5   5 -24    0.37    0.31
   5   5  23  180.67   11.47
  -5  -5 -23  179.27   10.94
  -5  -5 -22    1.28    0.91
  -5   5 -22    2.50    1.55
  -5  -5 -22    2.32    1.05
   5   5  22    1.34    1.01
  -5   5 -21   86.71    7.11
  -5   5 -21   81.74    7.07
  -5  -5 -21   73.51    6.26
  -5  -5 -21   65.95    6.16
  -5  -5 -20   28.78    3.36
  -5  -5 -20   20.13    2.97
  -5   5 -20   26.17    3.68
  -5   5 -19  396.87   27.28
  -5  -5 -19  375.21   26.62
  -5   5 -19  374.77   27.32
  -5  -5 -19  422.47   26.91
  -5  -5 -18  136.78   11.88
  -5   5 -18  183.52   13.27
  -5   5 -18  190.06   13.00
  -5  -5 -18  147.63   12.08
  -5  -5 -17 1312.83   91.83
  -5  -5 -17 1494.24  100.46
  -5   5 -17 1377.59   92.80
  -5   5 -17 1443.87   92.37
   5   5  17 1500.26   98.00
  -5  -5 -17 1464.31   91.38
  -5  -5 -17 1508.97   92.27
  -5   5 -16  521.92   32.65
  -5  -5 -16  421.19   31.84
  -5   5 -16  531.31   33.36
   5  -5  16  521.61   37.79
  -5  -5 -16  483.23   39.33
  -5  -5 -16  424.80   31.43
   5   5  16  472.52   37.40
  -5   5 -16  520.62   32.52
  -5  -5 -15  322.81   23.65
  -5   5 -15  324.17   24.49
  -5   5 -15  333.88   23.77
  -5  -5 -15  364.96   23.53
   5   5  15  395.93   29.52
  -5   5 -15  340.38   23.90
  -5  -5 -15  326.32   29.99
  -5   5 -14    6.66    2.65
  -5  -5 -14    9.63    2.31
  -5   5 -14   10.65    2.92
  -5  -5 -14   12.31    4.64
  -5   5 -14   11.97    2.37
  -5  -5 -14    9.05    2.07
  -5   5 -14    9.81    2.29
  -5   5 -13  193.74   16.19
  -5   5 -13  210.15   14.70
  -5   5 -13  200.66   16.10
  -5   5 -13  190.37   15.13
  -5  -5 -13  234.99   15.46
  -5  -5 -13  218.33   15.39
  -5  -5 -13  222.22   21.17
  -5   5 -13  216.53   15.48
  -5   5 -12    6.26    2.23
  -5   5 -12    3.76    1.22
  -5  -5 -12    7.87    3.92
  -5   5 -12   11.44    2.19
  -5   5 -12    4.86    1.55
  -5  -5 -12    9.19    1.88
  -5   5 -12    2.67    1.91
  -5  -5 -12    4.04    1.57
  -5   5 -11 1269.38   83.01
  -5   5 -11 1358.82   83.03
  -5  -5 -11 1346.47   88.57
  -5  -5 -11 1371.37   83.03
  -5   5 -11 1249.62   83.73
  -5   5 -11 1174.62   83.49
  -5  -5 -11 1372.03   89.37
  -5   5 -11 1253.02   82.33
  -5   5 -11 1285.70   86.17
  -5  -5 -11 1329.78   83.25
  -5  -5 -10  389.40   26.63
  -5   5 -10  405.43   26.83
  -5   5 -10  422.60   29.72
  -5  -5 -10  375.25   30.92
  -5   5 -10  398.13   26.19
  -5   5 -10  403.40   27.44
  -5  -5 -10  388.30   27.00
  -5  -5 -10  396.86   31.77
  -5   5  -9   85.44    7.56
  -5   5  -9   85.49    7.13
  -5  -5  -9   85.89   10.82
  -5   5  -9   78.67    8.83
  -5  -5  -9  102.03    7.85
  -5  -5  -9  103.81   10.94
  -5   5  -9   80.65    6.60
  -5  -5  -9  105.20    7.80
  -5  -5  -8   52.57    7.09
  -5   5  -8   47.38    4.81
  -5   5  -8   57.19    4.12
  -5  -5  -8   41.53    4.69
  -5   5  -8   57.49    6.26
  -5  -5  -8   33.77    6.35
  -5  -5  -8   38.05    4.51
  -5   5  -7  836.17   55.97
  -5   5  -7  822.00   53.43
  -5  -5  -7  840.46   58.25
  -5  -5  -7  929.92   58.03
  -5  -5  -6  150.77   11.58
  -5  -5  -6  161.45   14.36
  -5  -5  -5 2384.39  155.58
  -5   5  -5 2644.24  157.26
  -5  -5  -5 2818.77  159.02
  -5   5  -5 2332.25  155.90
  -5  -5  -4  163.86   12.44
  -5  -5  -4  190.82   14.79
  -5   5  -4  216.39   14.03
  -5  -5  -3 1805.70  121.63
  -5  -5  -3 2168.16  124.13
  -5   5  -3 2019.09  122.80
  -5  -5  -2   60.49    6.53
   5   5   2   63.01    6.30
   5  -5   2   62.51    6.37
  -5  -5  -1  301.15   19.57
  -5   5  -1  301.72   18.79
   5   5   1  228.04   18.78
   5  -5   1  244.12   18.76
  -5   5  -1  298.81   18.60
  -5   5   0  216.49   15.37
  -5  -5   0  248.04   16.22
   5   5   0  226.41   15.12
  -5   5   0  221.58   15.40
  -5   5   1   18.15    2.13
   5   5  -1   16.21    3.45
  -5  -5   1   24.34    2.79
  -5   5   1   19.74    2.30
  -5  -5   2    3.19    1.30
  -5   5   2    3.57    0.93
  -5   5   2    0.44    0.90
  -5  -5   3   17.59    2.82
  -5   5   3   20.95    2.58
   5   5  -3   15.90    3.35
  -5   5   3   23.32    2.42
  -5   5   4  314.77   25.57
  -5  -5   4  325.49   26.09
  -5   5   4  423.38   27.55
  -5   5   4  392.97   25.09
   5   5  -4  435.38   28.15
   5   5  -4  424.70   25.33
  -5  -5   5  894.47   58.99
   5   5  -5  864.63   60.92
   5  -5  -5 1002.51   58.60
   5   5  -5  927.19   58.77
  -5   5   5  960.84   60.84
  -5   5   5  904.64   58.34
  -5   5   5  807.94   58.88
  -5   5   6  251.82   17.84
   5   5  -6  276.30   18.65
  -5   5   6  256.91   20.01
   5  -5  -6  288.62   18.37
  -5  -5   6  264.82   18.47
  -5   5   6  257.17   18.65
  -5   5   7 1901.89  130.86
   5   5  -7 2014.16  129.59
  -5  -5   7 2152.91  129.35
   5  -5  -7 2069.89  129.20
  -5   5   7 2010.84  129.58
  -5   5   7 1991.26  128.54
   5  -5  -8    2.01    1.17
  -5  -5   8    3.12    1.31
   5   5  -8    4.50    1.62
  -5   5   8    5.04    2.24
  -5   5   8    6.61    1.76
  -5   5   8    3.71    1.14
  -5  -5   9 1511.38   96.43
  -5   5   9 1504.36   96.94
   5   5  -9 1588.03   97.31
  -5   5   9 1439.22   98.00
   5  -5  -9 1589.58   96.68
  -5   5   9 1425.74   95.36
   5   5 -10  231.44   17.65
   5  -5 -10  238.32   17.12
  -5  -5  10  250.05   17.11
  -5   5  10  222.02   18.22
  -5   5  10  205.83   17.13
  -5   5  10  221.20   15.74
  -5  -5  11  826.74   52.11
  -5   5  11  717.72   53.10
  -5   5  11  780.99   52.57
   5  -5 -11  816.03   52.09
  -5   5  11  755.45   50.38
  -5  -5  12   14.49    2.99
  -5   5  12    9.93    2.85
   5   5 -12    6.62    1.45
  -5   5  12    6.41    2.36
  -5   5  12   13.54    2.09
  -5   5  13   77.84    7.05
  -5  -5  13   94.50    9.13
  -5   5  13   80.69    9.28
   5   5 -13   99.55    7.12
  -5   5  13   79.30    9.41
  -5   5  14    2.01    1.67
  -5  -5  14    1.70    1.57
   5   5 -14    2.73    1.13
  -5   5  14    3.05    2.22
   5  -5 -14    3.09    3.13
   5  -5 -14    1.66    1.42
  -5   5  14    0.71    1.15
  -5  -5  15   18.99    3.97
   5  -5 -15   14.75    4.60
   5   5 -15   17.34    4.39
   5  -5 -15   17.16    2.81
   5   5 -15   15.93    2.45
  -5   5  15   14.78    3.93
   5   5 -15   12.40    2.10
   5   5 -15   15.26    2.35
  -5   5  15   16.86    4.17
  -5   5  15   18.49    2.69
   5  -5 -15   24.02    4.37
   5   5 -16   28.02    3.19
  -5  -5  16   23.14    4.96
  -5   5  16   27.03    5.46
   5  -5 -16   19.28    3.07
  -5   5  16   17.43    2.84
   5  -5 -16   19.19    4.40
   5   5 -16   28.01    3.07
   5   5 -16   18.95    4.76
   5  -5 -16   15.68    5.38
   5   5 -17   52.18    5.03
  -5  -5  17   50.63    7.61
   5  -5 -17   60.13    5.68
   5   5 -17   58.16    5.43
   5  -5 -17   60.44    7.98
  -5   5  17   50.74    5.28
   5  -5 -17   62.89   10.15
   5   5 -17   53.62    8.36
  -5   5  17   47.73    8.04
   5   5 -18   -0.35    1.18
  -5  -5  18    6.21    3.08
  -5   5  18   11.29    3.87
   5   5 -18    1.65    1.49
   5  -5 -18    5.83    3.94
   5  -5 -18    3.46    1.44
   5  -5 -18    4.05    1.34
   5   5 -18    2.97    2.75
   5  -5 -18   -1.19    3.11
  -5   5  18    4.67    1.69
  -5  -5  19   25.08    5.40
  -5   5  19   17.74    4.91
   5   5 -19   19.91    3.11
   5   5 -19   19.39    2.81
  -5   5  19   19.87    3.08
   5  -5 -19   20.29    6.41
   5  -5 -19   14.00    4.28
   5  -5 -19   24.63    2.83
   5   5 -19   17.50    5.42
   5  -5 -19   25.33    3.30
   5  -5 -20   73.31   12.24
  -5  -5  20   84.07   11.17
   5   5 -20  103.61    8.02
   5   5 -20   96.16   12.51
  -5   5  20   74.74   11.34
   5  -5 -20   81.55    7.06
   5   5 -20   96.43    7.64
   5  -5 -20   87.29    7.50
  -5   5  20   79.91    7.46
   5  -5 -21   14.96    5.35
  -5   5  21   13.91    5.31
   5   5 -21   16.49    2.82
   5   5 -21    7.05    4.66
   5   5 -21   18.24    2.96
   5   5 -21    9.65    2.16
   5  -5 -21    7.54    1.75
  -5   5  21   11.45    2.32
  -5   5  22   24.56    5.84
   5  -5 -22   23.39    3.06
   5   5 -22   21.83    3.22
   5  -5 -22   19.33    6.30
   5   5 -22   19.37    3.27
   5   5 -22   22.96    3.30
  -5   5  22   23.33    3.17
   5   5 -22   19.88    5.76
   5   5 -23   -0.87    1.73
   5   5 -23    2.26    1.45
   5  -5 -23    1.74    1.26
  -5   5  23    3.45    1.35
   5   5 -23    1.48    1.42
   5   5 -24  214.05   14.55
   5   5 -24  181.64   13.90
   5  -5 -24  170.48   13.38
   5   5 -24  194.82   14.14
   5  -5 -25   97.90    8.02
   5   5 -25  115.26    8.89
   5   5 -25   93.81    8.26
   5   5 -25  102.25    8.49
   5   5 -26   23.73    3.12
   5   5 -26   22.78    3.24
   5   5 -26   20.93    2.85
   5  -5 -26   16.55    2.46
   5  -5 -27  100.15    8.18
   5   5 -27  109.14    8.52
   5   5 -28   34.43    2.93
   5   5 -28   -0.22    0.31
   5   5 -29   23.53    2.65
  -5  -7 -23   94.66    6.59
   5   7  22  618.56   36.98
  -5  -7 -22  532.61   36.47
   5   7  21   80.31    6.45
  -5  -7 -21   90.83    6.33
  -5  -7 -20    6.42    1.53
  -5   7 -20    6.48    1.90
   5   7  20    4.93    1.53
  -5  -7 -19   68.73    5.93
  -5   7 -19   66.86    6.36
   5   7  19   71.20    6.15
  -5   7 -19   61.83    6.21
  -5  -7 -18  488.43   33.51
  -5  -7 -18  506.98   34.23
  -5   7 -18  509.66   34.61
  -5   7 -18  536.49   34.82
   5   7  18  545.23   34.47
  -5   7 -17   13.58    2.78
  -5  -7 -17   18.56    2.56
  -5   7 -17   22.38    3.22
   5   7  17   15.43    2.67
   5   7  16  355.08   24.45
  -5   7 -16  357.67   24.80
  -5  -7 -16  335.40   23.97
  -5   7 -16  366.88   24.71
   5   7  15    1.59    2.28
  -5   7 -15    1.98    1.36
  -5   7 -15    2.35    1.46
  -5  -7 -15    3.48    3.22
  -5  -7 -15    2.83    1.42
   5   7  15   -0.44    1.30
   5   7  14    1.60    2.30
  -5   7 -14    2.31    1.53
  -5   7 -14    3.93    1.78
  -5  -7 -14    0.87    1.44
   5   7  14    1.31    1.35
  -5  -7 -14    3.48    3.22
   5   7  13  166.97   17.32
  -5   7 -13  149.43   12.98
  -5   7 -13  143.87   12.18
  -5  -7 -13  161.22   12.30
  -5   7 -13  163.39   12.30
  -5  -7 -13  199.67   18.84
  -5  -7 -12 1674.09  107.78
  -5   7 -12 1652.09  107.80
  -5  -7 -12 1641.26  107.92
   5   7  12 1563.22  113.27
  -5   7 -12 1730.82  107.74
  -5  -7 -12 1660.09  114.25
  -5   7 -12 1755.65  108.84
  -5   7 -11  444.44   34.60
  -5   7 -11  485.60   34.12
   5   7  11  509.49   39.66
  -5  -7 -11  567.15   40.96
  -5  -7 -11  556.10   34.66
  -5  -7 -11  525.83   34.36
  -5   7 -10 1046.44   67.51
   5   7  10 1039.57   72.36
  -5  -7 -10 1070.40   72.97
  -5   7 -10 1052.73   66.76
  -5  -7 -10 1001.04   66.93
  -5  -7 -10  992.15   66.81
  -5  -7  -9  390.41   29.37
  -5   7  -9  317.13   23.12
  -5  -7  -9  353.68   23.69
  -5  -7  -9  344.62   23.60
   5   7   9  328.15   28.10
   5   7   9  326.01   23.06
  -5  -7  -8 1300.98   82.31
  -5   7  -8 1277.36   81.83
   5   7   8 1311.08   87.52
  -5  -7  -8 1220.55   87.13
   5   7   8 1248.45   81.75
   5   7   7  129.58    9.48
  -5  -7  -7  134.15   10.01
   5   7   7  113.63   12.98
  -5   7  -7  108.85    9.23
  -5   7  -7  117.39    9.85
  -5   7  -6  165.01   12.13
   5   7   6  170.51   16.43
  -5  -7  -6  166.86   12.64
   5   7   6  170.02   12.23
  -5   7  -6  167.00   12.75
  -5   7  -6  162.26   12.83
   5   7   5  163.85   17.08
  -5   7  -5  187.42   13.94
  -5   7  -5  193.71   13.18
  -5  -7  -5  178.60   13.86
   5   7   5  199.22   13.57
  -5   7  -5  183.66   14.11
   5   7   4  290.26   25.41
  -5   7  -4  318.21   21.09
  -5  -7  -4  312.33   21.88
  -5   7  -4  324.77   21.93
   5   7   4  325.53   21.47
  -5   7  -4  299.12   21.97
  -5   7  -3    2.04    1.31
  -5   7  -3    2.22    1.27
   5   7   3    5.90    2.93
  -5   7  -3    4.45    1.61
   5   7   3    1.15    1.02
  -5  -7  -3    4.08    1.48
  -5   7  -2  160.31   12.22
  -5   7  -2  170.40   11.95
   5   7   2  154.00   11.37
  -5  -7  -2  150.63   11.72
  -5  -7  -1  127.21    9.72
  -5   7  -1  129.16    9.70
  -5   7  -1  110.78    9.91
   5   7   1  133.27    9.40
  -5   7   0 2173.29  139.74
   5   7   0 2198.17  139.41
  -5   7   0 2243.94  140.36
  -5   7   1 1066.16   72.94
   5   7  -1 1123.29   76.76
   5   7  -1 1202.33   72.26
  -5   7   1 1089.75   72.65
  -5   7   2 4678.69  296.85
   5   7  -2 4754.38  300.77
  -5   7   2 4573.17  296.46
   5   7  -2 4790.88  295.99
   5   7  -3  351.08   21.97
   5   7  -3  333.38   26.12
  -5   7   3  296.19   22.22
   5   7  -4  764.09   52.94
  -5   7   4  750.19   48.90
   5   7  -4  744.89   48.38
  -5   7   5   88.12    7.24
   5   7  -5   85.00    6.78
  -5   7   6  218.73   17.76
   5   7  -6  194.23   13.55
  -5   7   6  181.50   13.82
  -5   7   7    1.44    1.10
  -5   7   7    4.43    2.43
  -5   7   8   27.20    5.25
   5   7  -8   26.29    3.14
  -5   7   8   28.95    3.43
  -5   7   9    8.40    1.85
  -5   7   9    6.97    2.92
  -5   7  10  193.21   19.13
   5   7 -10  225.31   15.76
  -5   7  10  221.05   16.07
   5   7 -10  232.29   15.83
  -5   7  11   88.18   10.79
   5   7 -11   90.43    7.55
   5   7 -11   89.61    7.57
  -5   7  11  105.60    8.15
  -5   7  12  650.61   51.19
  -5   7  12  712.71   47.48
   5   7 -12  747.63   47.23
   5   7 -12  722.06   47.15
  -5   7  13   61.59    8.68
  -5   7  13   68.01    6.14
   5   7 -13   58.28    5.62
   5   7 -13   57.91    5.59
  -5   7  14  209.83   20.55
   5  -7 -14  197.20   22.61
  -5   7  14  235.72   17.07
   5  -7 -14  230.98   17.31
   5   7 -14  241.52   16.89
   5   7 -14  242.68   16.84
   5   7 -15   67.97    6.84
   5   7 -15   70.78    6.87
   5  -7 -15   85.89   12.89
  -5   7  15   94.78    7.66
   5  -7 -15  100.70    8.08
   5   7 -16  211.50   16.55
   5  -7 -16  244.97   17.29
  -5   7  16  237.06   16.98
   5  -7 -16  232.80   24.12
   5  -7 -17   15.45    5.83
   5  -7 -17   14.96    2.92
  -5   7  17   15.26    2.80
   5   7 -17    9.92    2.47
   5  -7 -18    2.25    3.23
   5  -7 -18    4.51    2.00
  -5   7  18    4.75    1.78
   5  -7 -19   71.45    6.34
  -5   7  19   59.11    5.98
   5  -7 -20  220.53   24.91
   5  -7 -20  265.39   18.15
  -5   7  20  240.45   17.90
   5   7 -21  131.90   11.22
   5  -7 -21  141.07   10.95
  -5   7  21  147.23   11.08
   5   7 -22    2.63    1.59
  -5   7  22    5.87    1.75
   5   7 -22    1.44    1.64
   5   7 -23    9.50    2.33
   5   7 -23    4.96    1.82
  -5   7  23   11.16    2.10
   5   7 -24    4.19    1.78
   5   7 -24    3.46    1.70
   5   7 -25    6.39    1.71
   5   7 -25    4.49    1.52
   5   7 -26    9.03    1.83
   5   7 -26    9.38    1.94
   5   7 -27   21.74    2.59
   5   7 -28    5.72    1.18
  -5  -9 -21   13.04    1.40
  -5  -9 -20  338.01   22.10
  -5  -9 -19   50.08    4.44
   5   9  19   59.22    4.79
  -5   9 -18 1502.60   18.12
  -5   9 -18 1509.30   17.70
  -5  -9 -18 1497.54   16.54
   5   9  17   21.62    2.66
  -5   9 -17   14.68    2.51
  -5   9 -17   13.16    2.43
  -5  -9 -17   18.72    2.20
  -5   9 -16 1879.85  119.57
  -5  -9 -16 1860.16  119.08
  -5   9 -16 1889.89  119.63
  -5   9 -15  101.89    7.78
  -5   9 -15   92.49    7.65
  -5  -9 -15   77.12    7.08
  -5   9 -14  220.92   16.46
  -5   9 -14  240.88   16.60
  -5  -9 -14  224.92   16.32
  -5  -9 -13   41.15    4.68
  -5   9 -13   52.87    5.16
  -5   9 -13   50.38    5.06
  -5   9 -12  105.52    8.63
  -5  -9 -12   86.79    8.40
  -5   9 -12  110.89    8.66
  -5  -9 -12  106.23    8.64
   5   9  12  102.14    8.50
   5   9  11   11.15    2.31
  -5  -9 -11   13.78    4.63
  -5  -9 -11   13.30    2.68
   5   9  11    4.68    3.50
  -5   9 -11   12.63    2.41
  -5   9 -11   14.57    2.50
  -5  -9 -11   12.79    2.51
  -5  -9 -10  311.20   22.06
  -5   9 -10  311.51   21.75
   5   9  10  285.44   26.83
  -5  -9 -10  309.88   27.09
  -5  -9 -10  308.85   22.09
  -5   9 -10  326.47   22.90
   5   9  10  312.72   21.79
  -5   9  -9   22.30    2.96
   5   9   9    7.92    4.27
  -5  -9  -9   15.43    2.88
  -5  -9  -9   13.66    4.64
  -5   9  -9   24.14    3.85
  -5  -9  -9   19.39    3.13
   5   9   9   12.77    2.47
  -5  -9  -8  193.46   18.90
   5   9   8  161.60   18.04
  -5  -9  -8  197.20   14.40
  -5   9  -8  178.11   14.77
   5   9   8  197.50   14.09
  -5  -9  -7   17.28    3.04
  -5  -9  -7    8.86    3.78
  -5   9  -7   15.26    3.25
   5   9   7   18.93    5.14
   5   9   7   15.69    2.71
  -5  -9  -6 1868.78  119.97
  -5   9  -6 1835.44  120.48
   5   9   6 1765.99  125.53
   5   9   6 1932.53  119.68
  -5  -9  -5  311.63   22.15
   5   9   5  313.81   21.77
   5   9   5  323.84   27.48
  -5   9  -5  329.28   22.78
  -5   9  -5  296.08   22.60
  -5   9  -4 1244.98   91.84
  -5  -9  -4 1457.35   91.64
  -5   9  -4 1334.92   91.83
   5   9   4 1686.87   98.78
   5   9   4 1541.80   91.38
  -5   9  -3   32.87    4.35
  -5   9  -3   26.33    3.11
  -5  -9  -3   29.36    3.84
   5   9   3   29.07    6.21
   5   9   3   35.35    3.82
  -5   9  -3   25.61    3.85
  -5   9  -2  135.76   12.81
  -5  -9  -2  177.33   12.89
  -5   9  -2  172.33   13.08
   5   9   2  181.14   12.56
  -5  -9  -1  428.49   30.28
  -5   9  -1  433.14   30.53
   5   9   1  466.99   30.10
  -5   9  -1  504.32   31.02
  -5   9  -1  408.78   30.69
  -5   9   0  179.53   13.25
  -5  -9   0  152.50   12.58
  -5   9   0  178.40   13.00
   5   9   0  169.38   12.46
   5   9  -1    3.86    1.42
  -5   9   1    4.37    1.68
  -5  -9   1    6.46    1.72
  -5   9   1    5.15    1.65
   5   9  -1    1.50    2.17
   5   9  -2  317.75   21.59
  -5  -9   2  319.06   21.82
  -5   9   2  348.96   22.56
  -5   9   2  299.79   21.80
  -5   9   3   53.20    5.18
  -5   9   3   54.90    5.65
   5   9  -3   49.92    4.94
   5   9  -4    3.55    1.29
  -5   9   4    0.50    1.39
  -5   9   4    1.96    1.41
  -5   9   5  169.61   13.61
  -5   9   5  189.86   13.98
   5   9  -5  178.46   13.08
  -5   9   6  410.39   27.49
   5   9  -6  387.48   26.24
  -5   9   6  370.47   27.15
   5   9  -6  403.65   26.64
   5   9  -7   13.82    2.46
  -5   9   7   14.13    2.89
   5   9  -8  767.56   50.46
   5   9  -8  773.00   50.18
  -5   9   8  772.95   51.07
  -5   9   9  729.61   46.21
   5   9  -9  647.84   45.36
   5   9  -9  706.87   45.29
   5   9 -10  501.62   35.25
   5   9 -10  543.71   35.17
  -5   9  10  543.80   35.99
   5   9 -11   10.57    2.39
  -5   9  11   28.48    3.57
   5   9 -12  126.51   10.34
   5  -9 -12  137.61   11.23
  -5   9  12  143.34   11.15
   5  -9 -13  246.09   18.13
   5   9 -13  244.14   17.43
  -5   9  13  240.99   17.95
   5  -9 -14   21.64    6.65
   5  -9 -14   25.33    3.89
   5   9 -14   23.31    3.29
  -5   9  14   30.46    3.87
   5  -9 -15   40.91    9.48
   5  -9 -15   49.22    5.84
   5   9 -15   67.61    5.93
  -5   9  15   67.95    6.32
   5  -9 -16  175.35   13.27
  -5   9  16  171.91   13.11
   5   9 -16  160.62   12.65
   5  -9 -17   16.13    2.82
   5   9 -17   13.18    2.47
  -5   9  17    8.32    2.26
   5  -9 -18  640.12   42.14
   5   9 -18  612.65   41.82
  -5   9  18  648.65   42.18
   5  -9 -19    1.56    1.27
   5  -9 -19    3.24    1.57
   5   9 -19    0.78    1.16
  -5   9  19    2.86    1.44
   5   9 -20  430.05   27.90
   5   9 -20  395.49   28.08
   5  -9 -20  424.02   27.84
  -5   9  20  396.62   27.79
   5   9 -21    7.05    1.90
   5   9 -21    7.14    1.80
  -5   9  21    4.66    1.42
  -5   9  22  184.60   12.27
   5   9 -22  165.16   12.42
   5   9 -22  156.70   12.17
   5   9 -23   47.49    3.16
   5   9 -23   44.30    3.32
   5   9 -24  382.90   24.39
   5   9 -24  351.97   24.46
   5   9 -25   11.12    1.62
   5   9 -25    9.64    1.50
  -5 -11 -16   18.45    1.99
  -5 -11 -16   17.89    1.75
  -5 -11 -15   28.90    2.77
  -5 -11 -15   27.14    2.83
   5  11  15   36.11    3.19
  -5 -11 -14   72.58    3.44
   5  11  14   88.78    4.16
   5  11  13  932.06   13.66
  -5 -11 -13  771.71   11.99
  -5 -11 -12  301.80    8.06
   5  11  12  321.18    8.36
  -5 -11 -11 1636.42   95.24
   5  11  11 1841.89   95.42
   5  11  10  454.88   28.81
  -5  11 -10  397.41   28.35
  -5 -11 -10  443.37   28.82
  -5  11  -9 1204.65   81.13
  -5 -11  -9 1253.77   81.55
   5  11   9 1371.71   81.65
  -5 -11  -8   58.11    5.58
  -5 -11  -8   52.16    5.56
   5  11   8   62.64    5.57
  -5  11  -8   63.32    5.39
  -5 -11  -7    3.89    1.71
  -5  11  -7    1.90    1.09
  -5 -11  -7    0.43    1.36
   5  11   7    5.92    1.57
  -5 -11  -6    3.19    1.48
  -5 -11  -6    4.99    1.95
   5  11   6    0.38    1.25
  -5 -11  -5   39.75    4.61
  -5 -11  -5   54.95    5.27
   5  11   5   43.88    4.57
  -5 -11  -4   30.38    3.73
  -5 -11  -4   26.59    3.89
   5  11   4   28.07    3.50
  -5 -11  -3  120.26   10.20
  -5 -11  -3  128.94    9.96
  -5  11  -3  111.73   10.32
   5  11   3  130.34    9.85
   5  11   2   32.15    3.57
  -5  11  -2   29.62    4.21
  -5 -11  -2   22.64    3.33
  -5 -11  -2   25.65    3.74
  -5 -11  -1  404.65   28.27
   5  11   1  443.30   28.33
  -5  11  -1  396.32   29.05
  -5 -11   0  391.04   26.59
   5  11   0  395.12   26.54
  -5  11   0  379.81   27.41
  -5 -11   1  693.21   44.54
   5  11  -1  654.68   44.38
  -5  11   1  682.56   45.46
   5  11  -2  402.63   26.65
  -5  11   2  376.68   27.43
   5  11  -3  823.51   55.14
  -5  11   3  880.60   55.74
  -5  11   4  174.37   12.41
   5  11  -4  158.85   11.76
  -5 -11   4  147.87   12.14
   5  11  -4  151.39   11.73
  -5  11   5   28.05    3.61
   5  11  -5   23.51    3.03
  -5 -11   5   19.69    3.09
   5  11  -5   20.82    2.96
  -5  11   6    0.91    1.35
   5  11  -6    1.45    1.13
  -5  11   6    3.17    1.85
  -5  11   7   53.41    5.45
   5  11  -7   53.17    5.05
  -5  11   7   48.93    5.60
  -5  11   8   15.85    2.90
  -5  11   8   11.83    2.42
   5  11  -8   14.42    2.41
   5  11  -9    1.49    1.25
   5 -11  -9    4.95    1.98
  -5  11   9    3.02    1.73
   5  11 -10   63.26    5.86
   5  11 -10   61.05    5.33
   5 -11 -10   62.20    6.32
  -5  11  10   70.89    6.32
  -5  11  10   66.15    6.42
  -5  11  11    9.88    2.20
   5 -11 -11   12.33    2.62
   5  11 -11   13.70    2.44
   5  11 -11   10.47    1.80
  -5  11  11   14.72    2.73
  -5  11  12  207.33   14.51
   5  11 -12  196.89   13.67
   5  11 -12  187.01   14.10
  -5  11  12  186.16   14.55
  -5  11  13  535.89   33.00
   5  11 -13  463.44   32.04
  -5  11  13  484.60   33.05
  -5  11  14  170.46   12.24
  -5  11  14  157.75   12.34
   5  11 -14  159.74   11.57
   5 -11 -15  222.70   17.12
  -5  11  15  248.98   17.13
  -5  11  15  253.79   17.45
   5  11 -15  245.74   16.63
  -5  11  16   34.85    3.68
   5 -11 -16   36.97    3.83
  -5  11  16   34.29    3.86
   5 -11 -16   23.48    3.31
   5  11 -16   38.54    3.47
  -5  11  17  301.90   19.93
   5 -11 -17  295.13   20.03
   5  11 -17  294.15   19.57
   5 -11 -17  269.61   19.67
  -5  11  17  306.18   20.22
   5  11 -18   75.24    5.26
   5 -11 -18   65.51    5.46
  -5  11  18   68.48    5.60
   5  11 -19  139.31    4.26
   5 -11 -19   -0.14    0.21
   5  11 -20   44.26    3.57
  -5 -13 -11  150.08   10.13
  -5 -13 -10   38.67    3.10
  -5 -13  -9   41.52    3.60
  -5 -13  -8    4.01    1.12
  -5 -13  -7  362.70   24.02
  -5 -13  -6    3.29    1.24
  -5 -13  -5 2510.00   21.93
   5  13   5    0.12    0.23
  -5 -13  -4   71.17    3.93
   5  13   4   70.41    3.61
  -5 -13  -3 1391.71   25.67
   5  13   3 1493.26   24.85
   5  13   2   12.88    1.82
   5  13   2    8.57    1.43
   5 -13   2   14.06    2.13
  -5 -13  -2   10.94    2.03
   5 -13   1  285.63   19.36
  -5 -13  -1  295.74   19.49
   5  13   1  274.23   18.71
   5 -13   0  127.67    9.68
  -5 -13   0  140.91    9.78
   5  13   0  121.05    9.01
   5  13  -1  176.77   11.48
   5 -13  -1  146.74   11.87
  -5 -13   1  171.36   11.96
  -5  13   1  156.71   12.30
   5 -13  -2   37.33    4.05
  -5 -13   2   38.08    3.80
   5  13  -2   38.31    3.49
  -5  13   2   38.93    4.24
   5  13  -3    1.29    0.91
  -5 -13   3    4.58    1.31
   5 -13  -3    2.70    1.35
   5  13  -4  160.22   10.93
   5 -13  -4  149.61   11.49
  -5  13   4  152.87   11.73
   5 -13  -5  769.06   51.26
   5  13  -5  765.66   50.61
  -5  13   5  857.47   51.73
   5  13  -6   51.42    4.31
   5 -13  -6   47.90    4.73
   5 -13  -7 1378.41   89.39
   5  13  -7 1410.16   88.83
   5 -13  -8    3.79    1.42
   5  13  -8    3.66    1.20
   5 -13  -9 1066.87   70.84
  -5  13   9 1147.23   71.13
  -5  13  10   24.57    2.83
   5 -13 -10   16.51    2.38
   5 -13 -11   51.83    4.82
  -5  13  11   63.15    5.16
  -5  13  12    1.34    0.94
   5 -13 -12    0.73    0.96
   5 -13 -12    1.21    1.08
   5 -13 -13   96.77    7.18
   5 -13 -13   93.95    7.08
   5  13 -14   -0.16    0.72
   5 -13 -14   -1.41    0.97
   5  13 -15   72.72    5.29
  -6   0 -27    1.67    0.93
  -6   0 -26  511.06   33.54
  -6   0 -25   -0.34    1.40
  -6   0 -24    1.26    2.11
  -6   0 -23    2.43    1.85
  -6   0 -22    4.91    2.40
  -6   0 -21    1.18    2.01
  -6   0 -20  200.29   15.76
  -6   0 -19    0.29    0.91
  -6   0 -19   -1.26    2.26
  -6   0 -18 1301.35   82.48
  -6   0 -18 1293.23   84.23
  -6   0 -18 1257.24   84.21
  -6   0 -17   -2.28    4.22
  -6   0 -17    2.95    2.34
  -6   0 -17    4.26    2.41
  -6   0 -17    6.74    2.20
  -6   0 -17    1.85    1.15
  -6   0 -16 1500.07   97.89
  -6   0 -16 1542.96   97.95
  -6   0 -16 1473.77   97.09
  -6   0 -16 1522.40  106.51
  -6   0 -16 1523.54   96.41
  -6   0 -15   10.31    4.83
  -6   0 -15    6.48    2.33
  -6   0 -15    2.09    1.18
  -6   0 -15    6.06    2.33
  -6   0 -15    1.66    1.59
  -6   0 -14    7.71    3.62
  -6   0 -14   12.19    2.36
  -6   0 -14   10.30    2.56
  -6   0 -14   10.17    2.53
  -6   0 -14    9.25    1.70
  -6   0 -13    1.80    2.98
  -6   0 -13    1.11    1.02
  -6   0 -13    0.41    1.12
  -6   0 -13    0.95    1.66
  -6   0 -13    0.96    1.43
  -6   0 -13    1.10    0.88
  -6   0 -12  122.37    9.22
  -6   0 -12  119.01   10.07
  -6   0 -12  121.28    9.73
  -6   0 -12  139.55   10.29
  -6   0 -12  130.54    9.76
  -6   0 -12  119.63   14.65
  -6   0 -11    1.21    1.34
  -6   0 -11    4.59    3.10
  -6   0 -11    0.34    0.97
  -6   0 -11    0.64    1.00
  -6   0 -11    1.61    1.42
  -6   0 -10 1616.04  103.24
  -6   0 -10 1637.18  109.33
  -6   0  -9    1.36    0.87
  -6   0  -9   -1.28    2.80
  -6   0  -8    7.00    2.93
  -6   0  -8    7.10    1.50
  -6   0  -7    3.31    1.11
  -6   0  -7    4.27    3.06
  -6   0  -6 1248.08   83.69
  -6   0  -5    1.82    2.38
  -6   0  -4 2504.47  161.82
  -6   0  -3    1.68    2.61
  -6   0  -2 3068.39  197.04
  -6   0  -1   -0.86    2.36
  -6   0   0  910.89   61.75
  -6   0   1    0.59    1.95
  -6   0   2  496.29   33.74
  -6   0   3    2.05    1.41
  -6   0   4  206.99   14.90
   6   0  -4  205.03   13.38
   6   0  -5    1.28    0.66
  -6   0   5    1.50    1.35
   6   0  -6 6826.70  451.56
  -6   0   6 8023.59  452.93
  -6   0   7    3.38    1.49
   6   0  -7    1.57    0.93
   6   0  -8 6189.52  406.63
  -6   0   8 6899.65  407.71
   6   0  -9    2.36    1.18
  -6   0   9    1.05    1.45
  -6   0  10 2537.84  153.76
   6   0 -10 2298.60  152.71
   6   0 -11    2.16    1.49
  -6   0  11    4.02    1.76
   6   0 -12  481.27   33.26
   6   0 -12  476.93   33.81
  -6   0  12  472.72   33.84
   6   0 -13    0.71    1.17
   6   0 -13    0.81    1.64
  -6   0  13    1.67    1.83
   6   0 -14    8.84    2.70
  -6   0  14    5.56    2.47
   6   0 -14    8.09    2.62
   6   0 -15    1.80    1.83
  -6   0  15    3.06    2.39
   6   0 -15    1.99    2.02
  -6   0  16 2080.37  137.43
   6   0 -16 2077.27  132.93
   6   0 -16 2167.98  137.45
   6   0 -17    7.16    2.80
  -6   0  17    6.09    2.68
   6   0 -17    2.59    1.31
   6   0 -18  880.38   56.52
  -6   0  18  840.27   62.04
   6   0 -18  867.59   57.15
   6   0 -18  981.88   62.87
   6   0 -19    1.33    0.96
  -6   0  19    2.86    2.05
   6   0 -19    2.83    1.05
   6   0 -19    0.74    1.16
  -6   0  20 1456.91   99.64
   6   0 -20 1511.78   92.81
   6   0 -20 1337.60   93.04
   6   0 -20 1523.11   93.56
   6   0 -21    0.89    1.04
   6   0 -21    1.69    1.26
  -6   0  21   -1.64    3.04
   6   0 -21   -1.71    3.46
   6   0 -22  265.08   18.81
   6   0 -22  311.42   19.81
   6   0 -22  290.18   26.09
   6   0 -23    2.31    1.53
   6   0 -23    1.91    3.87
  -6   0  23    1.81    3.35
   6   0 -24  329.61   22.20
   6   0 -24  297.54   28.61
  -6   0  24  263.33   27.33
  -6   0  25    1.88    4.91
   6   0 -25    0.47    1.30
   6   0 -25   -2.03    4.75
   6   0 -26  150.89   11.88
   6   0 -27    1.91    1.48
   6   0 -28   11.34    2.64
   6   0 -29    0.42    1.70
   6   0 -30  118.66    9.37
   6   0 -31    0.94    1.22
   6   0 -32    9.93    1.72
  -6  -2 -26  109.56    7.57
  -6   2 -26   94.29    7.63
  -6  -2 -25  159.41   12.44
  -6   2 -25  203.92   13.10
  -6  -2 -24  162.27   11.74
  -6   2 -24  151.91   11.98
  -6  -2 -23  430.47   31.86
  -6   2 -23  545.43   32.89
  -6  -2 -22  330.72   23.77
  -6   2 -22  317.85   24.14
  -6  -2 -22  355.13   22.70
  -6   2 -21  145.29   11.23
  -6  -2 -21  130.67    9.22
  -6   2 -20  255.60   19.48
  -6   2 -20  244.22   18.48
  -6  -2 -20  284.79   17.95
  -6  -2 -20  226.90   18.63
  -6   2 -19  102.20    8.70
  -6  -2 -19   83.42    8.59
  -6  -2 -19   95.22    7.95
  -6  -2 -18  110.68    9.90
  -6   2 -18  117.16   10.59
  -6   2 -18  103.37    9.36
  -6  -2 -18  122.36    9.13
  -6  -2 -17   96.95    7.60
  -6  -2 -17   79.21    8.04
  -6   2 -17   80.86    8.66
  -6   2 -17   85.44    7.79
  -6  -2 -17   86.82    8.50
  -6   2 -17   96.93    8.16
  -6   2 -16    5.47    3.69
  -6   2 -16    1.42    1.36
  -6  -2 -16    1.62    1.68
  -6  -2 -16    3.55    2.08
  -6   2 -16    2.02    2.01
  -6   2 -16    1.82    1.51
  -6  -2 -16    1.90    1.41
  -6  -2 -16    4.57    4.63
  -6   2 -15    5.18    3.78
  -6  -2 -15    1.51    1.17
  -6  -2 -15    4.63    2.04
  -6  -2 -15    4.56    2.00
  -6   2 -15    0.90    1.30
  -6   2 -15    0.43    1.24
  -6  -2 -15    4.37    3.62
  -6  -2 -15    3.10    2.05
  -6   2 -15    1.29    1.85
  -6  -2 -14   50.00    5.11
  -6  -2 -14   57.71   10.36
  -6   2 -14   50.02    8.69
  -6  -2 -14   46.26    5.49
  -6   2 -14   57.14    6.33
  -6   2 -14   55.66    5.36
  -6   2 -14   53.98    5.43
  -6  -2 -14   58.58    6.12
  -6  -2 -14   62.16    5.85
  -6  -2 -13  116.38   10.82
  -6   2 -13  153.42   11.96
  -6  -2 -13  127.61   10.99
  -6   2 -13  165.17   11.18
  -6  -2 -13  169.94   17.80
  -6  -2 -13  124.04   10.49
  -6   2 -13  138.12   15.21
  -6   2 -13  144.77   10.15
  -6   2 -13  153.69   10.95
  -6  -2 -13  144.79   11.46
  -6   2 -13  139.97   10.76
  -6  -2 -12 1563.70  100.79
  -6  -2 -12 1466.39   92.36
  -6   2 -12 1459.35   92.50
  -6  -2 -12 1371.93   92.67
  -6  -2 -12 1496.03   92.75
  -6  -2 -12 1503.68   98.32
  -6   2 -12 1490.43   93.47
  -6   2 -12 1406.81   97.79
  -6   2 -12 1481.61   92.39
  -6  -2 -12 1548.44   93.28
  -6   2 -12 1296.36   91.56
  -6   2 -12 1505.73   92.47
  -6   2 -11 1273.26   77.08
  -6  -2 -11 1021.88   77.06
  -6   2 -11 1330.52   78.20
  -6  -2 -11 1120.77   77.10
  -6   2 -11 1250.50   77.10
  -6  -2 -11 1139.21   77.51
  -6   2 -11 1266.22   77.22
  -6  -2 -11 1264.43   84.46
  -6   2 -11 1333.92   82.82
  -6  -2 -11 1173.60   82.01
  -6  -2 -10 2257.54  135.38
  -6  -2 -10 2063.62  130.35
  -6   2 -10 2090.74  135.08
  -6  -2 -10 2075.66  130.77
  -6   2 -10 1957.09  130.14
  -6  -2 -10 2048.61  136.95
  -6  -2  -9 1154.35   76.62
  -6  -2  -9 1212.87   82.66
  -6  -2  -9 1204.38   80.55
  -6   2  -9 1343.41   81.46
  -6  -2  -8 1559.74   99.51
  -6  -2  -8 1532.27  101.53
  -6   2  -8 1430.18   99.44
  -6   2  -7   94.26   10.06
  -6  -2  -7   99.13   11.26
  -6  -2  -7  101.11    9.92
  -6   2  -7   99.49    7.47
  -6   2  -6    3.16    0.94
  -6  -2  -6    4.32    2.24
  -6  -2  -6    1.06    2.16
  -6   2  -6    4.10    2.15
  -6  -2  -5  655.60   50.57
  -6   2  -5  726.36   49.84
  -6  -2  -5  791.18   49.52
  -6  -2  -4  170.52   15.16
  -6   2  -4  151.69   14.06
  -6  -2  -4  199.66   14.03
  -6  -2  -3  235.66   20.08
  -6   2  -3  232.41   19.27
  -6  -2  -3  287.76   18.78
  -6  -2  -2  395.38   30.56
  -6   2  -2  415.71   29.90
  -6  -2  -2  436.06   28.57
  -6  -2  -1  720.19   52.67
  -6  -2  -1  787.95   50.22
  -6   2  -1  784.68   52.28
  -6  -2   0 1442.97   93.67
  -6   2   0 1336.51   92.78
  -6  -2   0 1444.83   90.48
  -6  -2   1  734.26   48.68
  -6   2   1  682.53   48.19
  -6   2   2 1590.28  105.34
  -6  -2   2 1683.00  105.35
   6  -2  -2 1538.73  105.25
   6   2  -2 1738.10  105.52
  -6   2   3 1007.46   64.05
  -6  -2   3 1037.47   63.81
   6  -2  -3  948.88   63.92
   6   2  -3  921.04   63.94
   6   2  -4  603.31   40.77
  -6  -2   4  684.09   41.43
  -6   2   4  597.70   41.44
   6   2  -5 1019.20   66.70
  -6   2   5 1025.67   67.47
  -6  -2   5 1083.82   67.30
  -6   2   6  201.95   15.78
  -6   2   6  225.96   14.61
   6   2  -6  215.18   15.04
  -6  -2   6  216.55   15.62
  -6   2   7   30.69    4.06
  -6  -2   7   35.55    4.07
  -6   2   7   37.40    3.17
  -6   2   8  385.96   26.00
  -6   2   8  368.13   27.45
  -6  -2   8  453.46   27.58
  -6   2   9    5.79    2.06
  -6  -2   9    3.99    1.52
  -6   2   9    5.88    1.31
  -6  -2  10   26.50    3.75
  -6   2  10   22.25    3.71
  -6   2  11  139.65   13.00
   6   2 -11  168.62   13.40
   6  -2 -11  148.17   12.66
   6  -2 -11  151.27   13.02
  -6  -2  11  168.48   13.18
   6  -2 -12  233.44   18.48
  -6  -2  12  247.34   18.45
  -6   2  12  212.71   18.49
   6   2 -12  243.58   18.78
   6  -2 -12  227.40   18.06
  -6  -2  13 1607.16   97.25
  -6   2  13 1497.98   97.58
   6   2 -13 1406.99   97.03
   6  -2 -13 1466.05   96.61
   6  -2 -13 1400.29   96.94
  -6  -2  14 1028.05   66.11
   6   2 -14  968.51   66.13
   6  -2 -14  962.92   65.48
   6  -2 -14  935.49   65.86
  -6   2  14  963.63   66.50
   6  -2 -15 1505.61  101.59
  -6  -2  15 1651.91  101.69
  -6   2  15 1433.64  101.85
   6   2 -15 1532.75  101.81
   6  -2 -15 1528.20  101.18
   6   2 -16 1325.46   90.41
   6  -2 -16 1325.60   90.38
  -6  -2  16 1423.83   90.34
  -6   2  16 1252.68   90.56
   6   2 -16 1384.51   85.60
   6   2 -16 1327.77   85.92
   6  -2 -16 1308.62   85.70
   6  -2 -16 1378.66   89.92
   6  -2 -17  694.60   52.53
   6   2 -17  754.77   47.83
  -6   2  17  675.08   53.03
   6   2 -17  755.63   48.27
   6  -2 -17  738.37   47.97
   6   2 -17  724.17   52.87
  -6  -2  17  737.43   52.44
   6  -2 -17  722.83   52.16
   6   2 -18    8.51    1.76
   6  -2 -18    4.86    1.46
   6   2 -18    6.62    1.61
   6   2 -18   10.14    1.79
  -6  -2  18   10.19    3.82
   6  -2 -18    6.84    3.02
  -6   2  18    4.46    3.04
   6  -2 -19  237.30   16.24
   6  -2 -19  220.88   21.16
  -6  -2  19  250.03   21.29
  -6   2  19  199.83   20.87
   6   2 -19  215.46   16.29
   6   2 -19  226.71   16.15
   6   2 -19  232.17   15.99
   6   2 -20   37.20    3.80
   6  -2 -20   43.11    7.75
   6   2 -20   36.79    3.96
   6   2 -20   30.18    3.90
   6  -2 -20   35.10    3.86
  -6  -2  20   20.55    5.81
  -6   2  20   22.15    6.33
   6   2 -21   12.86    2.13
   6  -2 -21    8.98    2.07
   6   2 -21    8.86    2.30
  -6  -2  21    6.21    3.90
   6   2 -21    7.83    1.93
   6  -2 -21    7.91    3.97
   6   2 -21    7.22    4.51
  -6   2  21   14.40    5.60
   6   2 -22    2.61    1.51
   6   2 -22    5.97    1.56
   6   2 -22    5.57    1.69
  -6   2  22    1.88    3.48
   6  -2 -22    5.32    1.54
   6   2 -22   -1.91    3.88
   6  -2 -22    6.69    3.67
  -6  -2  22    1.63    3.02
  -6  -2  23   99.03   13.22
   6   2 -23   89.13    8.51
   6   2 -23  111.21    8.56
   6   2 -23  107.55    8.95
  -6   2  23   87.17   13.24
   6  -2 -23  114.98    8.83
   6   2 -23  104.14   14.46
   6  -2 -23   94.75   13.05
   6   2 -24  407.64   35.40
  -6   2  24  356.21   33.93
   6   2 -24  375.50   27.33
   6  -2 -24  427.39   27.50
   6   2 -24  402.38   27.63
   6  -2 -24  433.13   34.75
  -6  -2  24  372.39   33.06
   6   2 -24  399.67   27.11
   6   2 -25   51.11    4.84
   6  -2 -25   41.14    4.80
   6   2 -25   48.19    5.21
   6  -2 -26  410.12   27.77
   6   2 -26  395.23   27.88
   6   2 -26  371.84   27.17
   6  -2 -26  447.29   27.81
   6   2 -26  407.50   28.14
   6   2 -27  233.89   17.25
   6  -2 -27  250.40   17.78
   6   2 -27  265.71   18.30
   6   2 -28  132.24   10.37
   6   2 -28  117.20    9.49
   6  -2 -28  138.73   10.19
   6   2 -29   14.71    2.17
   6  -2 -29   14.42    2.57
   6   2 -29   20.49    2.98
   6  -2 -30  208.22   14.05
   6   2 -30  183.53   14.08
   6  -2 -31   33.46    3.40
   6   2 -31   35.40    3.60
  -6   4 -25    5.82    1.22
  -6  -4 -24    0.80    0.89
  -6   4 -24    1.60    1.21
   6   4  24    0.94    0.93
  -6  -4 -23    4.58    1.13
  -6  -4 -23    5.50    1.46
  -6   4 -23    7.41    2.01
  -6  -4 -22   24.91    2.82
  -6   4 -22   19.94    3.03
  -6  -4 -22   14.67    2.20
  -6   4 -21   27.03    4.06
  -6  -4 -21   23.85    3.37
  -6   4 -21   36.80    4.21
  -6  -4 -21   33.64    3.43
  -6   4 -20    2.30    1.78
  -6   4 -20    0.48    1.50
  -6  -4 -20    1.73    1.18
  -6  -4 -20    1.25    1.34
  -6  -4 -19  840.63   60.78
  -6   4 -19  944.77   62.03
  -6  -4 -19 1045.96   60.92
  -6   4 -19  909.10   61.26
  -6   4 -18    4.02    2.36
  -6  -4 -18    2.88    1.83
  -6  -4 -18    5.00    1.93
   6  -4  18    1.62    3.56
   6   4  18   -1.74    3.80
  -6   4 -18    8.53    2.46
  -6  -4 -17 1554.86  111.03
  -6   4 -17 1895.09  112.75
  -6  -4 -17 1824.27  111.17
  -6   4 -17 1725.86  111.27
  -6  -4 -16   19.70    3.08
  -6  -4 -16   24.48    3.56
  -6   4 -16    4.92    2.85
  -6   4 -16    7.55    2.26
  -6  -4 -16   17.20    2.35
  -6  -4 -15 1457.26   98.59
  -6   4 -15 1710.62  100.28
  -6   4 -15 1501.73   98.46
  -6  -4 -15 1535.76   98.74
  -6  -4 -15 1548.07   98.54
  -6  -4 -15 1474.28   98.71
  -6   4 -15 1529.68   98.04
  -6  -4 -15 1543.25   97.87
  -6  -4 -15 1591.72  106.19
  -6  -4 -14   62.39   10.16
  -6   4 -14   31.16    6.72
  -6  -4 -14   55.57    5.53
  -6   4 -14   34.09    4.29
  -6  -4 -14   64.12    5.76
  -6   4 -14   52.78    6.15
  -6   4 -14   41.15    4.84
  -6  -4 -14   81.26   11.01
  -6  -4 -14   59.68    5.03
  -6  -4 -14   55.07    5.55
  -6   4 -14   42.44    4.87
  -6   4 -14   40.72    5.72
  -6  -4 -13  329.65   24.62
  -6   4 -13  364.72   25.78
  -6  -4 -13  364.91   24.81
  -6   4 -13  359.50   24.44
  -6  -4 -13  336.47   24.72
  -6  -4 -13  309.70   29.82
  -6   4 -13  357.94   24.60
  -6  -4 -13  377.41   30.73
  -6   4 -13  360.34   24.11
  -6   4 -13  395.34   29.26
  -6  -4 -13  356.36   24.24
  -6   4 -13  367.42   25.67
  -6  -4 -12   42.89    8.14
  -6   4 -12   48.78    7.35
  -6  -4 -12   51.41    5.19
  -6  -4 -12   44.16    4.91
  -6   4 -12   40.77    5.33
  -6   4 -12   46.84    4.83
  -6  -4 -12   56.86    5.26
  -6   4 -12   43.24    4.36
  -6   4 -12   43.10    4.59
  -6  -4 -12   48.44    4.74
  -6   4 -12   47.36    5.78
  -6  -4 -12   59.22    9.00
  -6   4 -11  127.88    9.26
  -6  -4 -11  112.99    9.71
  -6   4 -11  118.98   10.54
  -6  -4 -11  129.48    9.92
  -6   4 -11  116.41    9.50
  -6  -4 -11  146.46   14.46
  -6   4 -11  104.74   11.98
  -6  -4 -11  124.94    9.82
  -6  -4 -11  134.56   14.68
  -6   4 -11  118.47    9.39
  -6  -4 -11  131.38    9.72
  -6   4 -11  116.72   10.19
  -6  -4 -10    8.69    3.79
  -6   4 -10    1.02    2.08
  -6  -4 -10    3.83    1.60
  -6   4 -10    8.38    1.75
  -6  -4 -10    4.31    1.51
  -6  -4 -10    3.14    1.40
  -6   4 -10    2.48    1.20
  -6  -4 -10   11.69    3.57
  -6  -4 -10    3.63    1.43
  -6   4 -10    3.52    1.13
  -6   4 -10    9.14    2.11
  -6   4 -10    3.19    2.17
  -6  -4  -9   40.42    4.08
  -6   4  -9   32.81    5.49
  -6  -4  -9   44.19    7.18
  -6   4  -9   40.71    4.29
  -6   4  -9   31.42    3.39
  -6   4  -9   33.85    3.66
  -6  -4  -9   45.20    6.89
  -6  -4  -9   34.31    3.86
  -6   4  -9   33.86    3.58
  -6  -4  -8   34.40    3.56
  -6   4  -8   29.74    3.02
  -6  -4  -8   25.89    5.28
  -6  -4  -8   43.50    6.35
  -6   4  -8   31.74    5.06
  -6  -4  -7  781.43   50.67
  -6  -4  -7  698.91   50.71
  -6   4  -7  684.59   48.97
  -6  -4  -6   12.92    1.96
  -6  -4  -6   14.32    3.56
  -6   4  -6    7.80    2.47
  -6  -4  -5 8879.16  561.38
  -6  -4  -5 8582.12  564.96
  -6   4  -5 8800.81  563.60
  -6  -4  -5 9670.31  564.92
  -6  -4  -4   91.55    6.41
  -6  -4  -4   94.95    9.24
  -6  -4  -3 4101.10  255.76
  -6   4  -3 3985.25  256.23
  -6  -4  -3 3907.85  258.66
  -6   4  -3 4256.89  257.71
  -6   4  -3 4043.08  255.94
  -6  -4  -2  102.29    9.54
  -6   4  -2  103.03    8.60
  -6   4  -2   89.22    7.58
  -6   4  -2  102.11    7.39
  -6  -4  -1  795.05   53.34
  -6   4  -1  812.65   52.50
  -6   4  -1  707.55   51.27
  -6   4  -1  864.34   51.10
  -6   4   0   10.64    1.56
   6  -4   0    7.81    2.10
   6   4   0   11.86    2.42
  -6  -4   0    7.56    2.57
  -6   4   0    8.83    2.05
  -6   4   0    8.96    1.75
  -6  -4   1  424.54   30.87
  -6   4   1  404.67   30.03
  -6   4   1  472.59   28.69
   6  -4  -1  408.93   29.83
   6   4  -1  446.51   30.11
   6   4  -2    5.92    1.93
  -6   4   2    9.91    2.17
  -6  -4   2    6.61    2.47
   6   4  -2    3.95    1.46
  -6  -4   3  422.53   29.56
  -6   4   3  398.12   29.11
   6   4  -3  423.22   29.13
  -6   4   4    7.26    2.24
   6   4  -4   12.05    2.54
  -6  -4   4   11.01    2.21
  -6  -4   5  475.89   31.01
   6   4  -5  429.99   31.64
  -6   4   5  475.67   31.32
  -6   4   5  447.44   31.24
  -6   4   6   12.45    2.52
  -6   4   6   16.67    2.83
  -6  -4   6   11.85    2.27
   6   4  -6   13.31    2.83
  -6   4   7 2266.36  150.64
  -6   4   7 2352.47  150.59
  -6  -4   7 2487.12  150.33
  -6   4   7 2344.58  148.98
  -6  -4   8    8.76    2.08
  -6   4   8   10.02    2.25
  -6   4   8    8.13    2.12
  -6   4   8    7.97    1.39
  -6   4   9 4253.96  284.46
   6  -4  -9 4895.64  284.20
  -6   4   9 4191.54  282.35
  -6   4   9 4476.20  284.28
  -6  -4   9 4946.71  284.22
   6   4  -9 4682.64  284.73
  -6   4  10   13.19    2.77
  -6  -4  10   17.92    3.00
   6  -4 -10   17.97    3.00
   6   4 -10   18.92    3.57
  -6   4  10   15.69    2.04
  -6   4  10    9.47    2.73
  -6  -4  11   30.05    4.20
  -6   4  11   23.75    4.25
  -6   4  11   31.10    4.37
   6   4 -11   28.73    4.60
   6  -4 -11   24.90    4.04
  -6   4  11   30.54    3.02
  -6   4  12    2.60    2.04
  -6   4  12    6.45    1.42
  -6  -4  12    3.47    1.92
  -6   4  12    4.05    1.78
   6   4 -12    2.51    1.57
   6  -4 -12    5.40    2.03
   6  -4 -13   74.56    8.01
  -6  -4  13   73.52    8.11
  -6   4  13   69.94    7.85
   6   4 -13   75.90    8.78
  -6   4  13   94.70    9.67
   6  -4 -13   83.97    9.94
  -6   4  13   76.38    6.25
  -6  -4  14   24.56    4.38
  -6   4  14   12.00    3.78
   6   4 -14   20.99    2.54
   6   4 -14   21.87    2.47
   6   4 -14   21.33    4.43
   6  -4 -14   13.93    3.44
  -6   4  14   17.24    3.55
   6  -4 -14   16.66    4.52
  -6   4  14   15.01    2.32
   6  -4 -15  496.51   34.29
   6   4 -15  456.01   34.95
   6   4 -15  484.49   31.05
   6  -4 -15  489.36   30.73
  -6  -4  15  530.23   35.00
   6   4 -15  484.49   30.92
   6  -4 -15  478.77   36.36
   6   4 -15  434.86   30.86
  -6   4  15  438.39   35.18
  -6   4  15  426.66   30.93
  -6   4  16   20.13    2.84
   6   4 -16   22.73    2.91
  -6  -4  16   26.96    5.24
   6  -4 -16   23.29    2.70
   6  -4 -16   28.51    3.28
   6   4 -16   23.76    2.90
  -6   4  16   21.19    4.98
   6  -4 -16   11.87    4.48
  -6   4  17   97.72   13.08
   6  -4 -17  132.88    9.89
   6   4 -17  135.15    9.77
   6   4 -17  128.06    9.68
   6  -4 -17  135.17   15.07
  -6  -4  17  139.25   13.84
  -6   4  17  105.81    9.43
   6  -4 -17  127.56    9.37
  -6  -4  18  132.94   13.36
   6   4 -18  114.32    9.19
   6  -4 -18  129.52    9.41
   6   4 -18  123.96    9.34
  -6   4  18   87.94   12.74
   6  -4 -18  125.71   14.53
   6  -4 -18  122.22   12.78
   6   4 -18  105.04   13.16
  -6   4  18   90.97    8.86
   6  -4 -18  134.73    9.10
   6   4 -19  619.14   38.34
   6   4 -19  613.70   38.36
  -6   4  19  520.61   43.78
  -6  -4  19  636.65   43.97
   6  -4 -19  576.17   45.21
   6  -4 -19  570.68   37.81
   6   4 -19  561.77   44.27
   6  -4 -19  602.19   43.03
  -6   4  19  508.07   37.91
  -6  -4  20   23.16    5.83
  -6   4  20   22.30    6.10
   6  -4 -20   15.79    2.45
   6   4 -20   21.81    2.93
   6   4 -20   19.20    2.85
   6  -4 -20   12.35    4.06
   6  -4 -20   18.91    5.73
  -6   4  20   11.57    2.35
   6   4 -20   15.22    5.14
   6   4 -21  609.41   37.22
   6  -4 -21  456.96   43.07
   6   4 -21  581.05   44.18
  -6  -4  21  641.07   43.59
   6  -4 -21  578.61   36.65
   6   4 -21  584.70   37.12
   6   4 -21  577.22   37.30
   6  -4 -21  522.90   41.81
  -6   4  21  472.87   36.45
  -6   4  21  472.90   42.81
  -6  -4  22    7.72    3.63
  -6   4  22    5.39    3.35
   6  -4 -22    7.16    1.82
   6  -4 -22    6.07    3.76
   6   4 -22    5.65    1.98
   6   4 -22   10.99    2.37
   6   4 -22    1.87    3.48
   6  -4 -22    4.56    2.84
   6   4 -22    7.41    1.92
  -6   4  23  484.10   43.14
   6   4 -23  521.00   44.51
  -6  -4  23  551.10   43.05
   6   4 -23  597.93   37.63
   6  -4 -23  521.55   45.00
   6  -4 -23  493.18   42.49
   6   4 -23  597.94   37.68
   6   4 -23  563.35   37.75
   6  -4 -23  550.25   37.06
   6   4 -24   15.50    2.84
   6  -4 -24   11.22    2.21
   6   4 -24   21.12    2.99
   6   4 -24   19.17    2.96
   6   4 -24   14.47    2.69
   6  -4 -24    7.60    1.99
   6  -4 -25   37.98    4.12
   6   4 -25   48.86    4.83
   6   4 -25   35.10    4.19
   6   4 -25   32.47    4.26
   6   4 -26   28.67    3.61
   6   4 -26   29.97    3.71
   6  -4 -26   23.51    3.18
   6   4 -26   35.20    4.07
   6  -4 -27  256.76   17.41
   6   4 -27  256.52   17.80
   6   4 -27  233.59   17.42
   6  -4 -28    3.51    1.41
   6   4 -28    4.75    1.41
   6   4 -28    3.51    1.50
   6  -4 -29   85.79    6.99
   6   4 -29   87.89    7.20
   6   4 -29  101.77    7.26
   6   4 -30   13.35    1.83
   6  -4 -30   14.60    1.74
   6   4 -30   14.40    1.82
  -6  -6 -23  527.61   33.85
  -6  -6 -22  209.90   14.35
   6   6  22  214.36   14.73
  -6  -6 -21   69.47    5.81
   6   6  21   76.09    6.19
  -6  -6 -20   32.50    3.63
  -6   6 -20   40.44    4.35
   6   6  20   36.73    3.95
  -6  -6 -19    2.49    1.36
  -6   6 -19    2.85    1.15
  -6   6 -19    2.82    1.56
   6   6  19    1.56    1.30
  -6   6 -18   22.26    2.99
  -6   6 -18   25.06    3.65
  -6  -6 -18   24.65    3.30
  -6   6 -18   24.22    3.47
  -6   6 -17  412.49   29.59
  -6   6 -17  485.86   30.53
  -6   6 -17  452.02   30.19
  -6  -6 -17  423.69   29.16
  -6  -6 -17  446.12   29.93
  -6   6 -16   15.72    2.68
  -6   6 -16   14.96    2.54
  -6   6 -16    8.64    2.41
  -6  -6 -16    5.35    1.67
  -6  -6 -16    8.78    3.60
  -6  -6 -15    0.39    1.17
  -6   6 -15    3.98    1.64
  -6  -6 -15    3.51    3.25
  -6   6 -15    3.03    1.67
  -6   6 -15    0.94    1.29
  -6  -6 -14   45.15    8.66
  -6   6 -14   64.92    6.14
  -6   6 -14   55.16    5.70
  -6  -6 -14   54.00    5.60
  -6   6 -14   69.58    7.27
  -6   6 -13  164.56   13.59
  -6   6 -13  142.80   12.44
  -6  -6 -13  148.98   17.24
  -6   6 -13  159.73   12.40
  -6  -6 -13  189.42   12.76
  -6   6 -12 1325.87   84.05
  -6   6 -12 1305.43   84.90
  -6  -6 -12 1353.58   90.59
  -6  -6 -12 1231.10   83.77
  -6   6 -12 1326.21   83.81
  -6   6 -11  619.37   42.26
  -6   6 -11  615.22   42.46
  -6  -6 -11  684.54   48.80
  -6  -6 -11  653.28   42.83
  -6  -6 -11  675.83   42.73
  -6   6 -11  634.16   43.27
  -6   6 -10 1240.91   79.51
  -6  -6 -10 1172.07   79.54
  -6   6 -10 1241.33   80.17
  -6  -6 -10 1280.76   85.51
  -6  -6 -10 1213.79   79.74
  -6   6 -10 1273.05   79.37
  -6   6  -9  884.80   57.63
  -6  -6  -9  958.56   63.53
  -6  -6  -9  900.44   58.04
  -6  -6  -9  895.95   57.93
  -6   6  -9  836.72   58.05
  -6   6  -8 1042.78   66.31
  -6  -6  -8 1026.86   66.73
  -6   6  -8 1035.51   68.12
  -6   6  -8  987.97   66.74
  -6  -6  -8 1079.64   71.63
  -6  -6  -8 1019.28   66.66
  -6  -6  -7  366.55   25.57
  -6   6  -7  348.11   25.50
  -6  -6  -7  437.43   30.53
  -6   6  -7  385.31   25.22
  -6  -6  -7  370.73   25.64
  -6  -6  -6    7.83    1.86
  -6  -6  -6    6.84    2.87
  -6  -6  -5  295.16   19.67
  -6  -6  -5  302.73   19.20
  -6   6  -5  254.39   19.27
  -6   6  -5  263.35   19.55
  -6  -6  -4  281.48   19.78
  -6  -6  -4  294.79   20.34
  -6   6  -4  305.76   20.24
  -6  -6  -3 1020.41   65.50
  -6   6  -3 1024.95   65.85
   6   6   2    7.11    1.43
   6   6   1  610.01   39.87
  -6   6  -1  625.01   40.44
   6   6   0  557.08   40.04
   6   6   0  548.96   36.18
  -6   6   0  573.72   36.79
   6   6  -1 1528.96  101.05
   6   6  -1 1517.47   97.09
  -6   6   1 1550.74   97.65
   6   6  -2 2756.50  179.23
  -6   6   2 2888.54  175.88
   6   6  -2 2714.60  175.23
   6   6  -3 2049.12  129.52
   6   6  -3 1942.45  125.41
  -6   6   3 2027.01  125.98
   6   6  -4  168.13   15.37
  -6   6   4  200.30   12.85
   6   6  -4  166.63   12.14
  -6   6   5  564.13   35.21
   6   6  -5  514.13   34.58
   6   6  -5  548.30   38.52
  -6   6   6  267.26   19.10
   6   6  -6  210.81   15.39
   6   6  -6  232.87   18.99
  -6   6   6  243.24   16.00
  -6   6   7  555.61   38.49
  -6   6   7  533.56   35.46
  -6   6   8  576.97   40.59
  -6   6   8  568.87   37.53
  -6   6   9    8.19    2.87
  -6   6   9    9.36    1.80
  -6   6  10   66.05    8.77
  -6   6  10   95.37    7.27
  -6   6  11   99.01    9.09
  -6   6  11   78.45    9.75
   6   6 -11  106.20    7.72
  -6   6  11   92.08    7.79
  -6   6  12   88.27    8.96
   6   6 -12   82.83    8.94
  -6   6  12   83.56    9.97
   6   6 -12   97.90    7.45
  -6   6  12   93.13    7.64
  -6   6  13 2083.53  143.52
   6   6 -13 2307.24  140.00
  -6   6  13 2144.88  142.15
   6   6 -13 2238.84  140.04
   6   6 -13 2320.79  142.91
  -6   6  13 2074.28  140.11
   6   6 -14  205.87   14.51
   6   6 -14  213.47   14.51
  -6   6  14  174.99   16.40
   6   6 -14  192.84   17.13
  -6   6  14  192.40   14.60
   6  -6 -15  745.52   60.60
   6   6 -15  846.87   53.64
   6   6 -15  795.99   56.83
   6  -6 -15  849.07   54.25
  -6   6  15  799.72   53.80
   6   6 -16  218.81   15.27
  -6   6  16  206.61   15.40
   6  -6 -16  195.40   15.51
   6  -6 -16  230.10   22.47
   6  -6 -17  198.22   20.93
   6  -6 -17  192.62   13.91
  -6   6  17  161.87   13.29
   6  -6 -18    5.81    2.09
   6  -6 -18   10.71    5.03
   6   6 -18   10.14    2.14
  -6   6  18    5.45    1.81
   6  -6 -19   34.09    4.11
   6  -6 -19   21.92    6.58
   6   6 -19   30.91    4.03
  -6   6  19   33.03    4.08
   6  -6 -20    7.10    2.00
   6   6 -20    7.40    1.94
   6   6 -20    2.78    1.39
  -6   6  20    4.89    1.83
   6  -6 -20    8.90    4.12
   6   6 -21    3.53    1.58
   6   6 -21    5.14    1.93
   6  -6 -21    8.65    2.10
   6   6 -21    6.62    2.09
  -6   6  21    5.56    1.73
   6   6 -22    1.51    1.55
   6   6 -22    0.70    1.36
   6   6 -22    2.77    1.53
  -6   6  22   -0.40    1.10
   6   6 -23  204.88   15.05
   6   6 -23  245.35   15.95
  -6   6  23  179.51   14.95
   6   6 -23  245.58   16.19
   6   6 -24   12.39    2.02
   6   6 -24   20.07    3.11
   6   6 -24   18.25    2.86
   6   6 -25    3.15    1.44
   6   6 -25    5.19    1.84
   6   6 -26  167.42   12.83
   6   6 -26  184.08   13.16
   6   6 -27  142.11   10.59
   6   6 -28  158.97   11.37
   6   6 -29    0.60    0.79
  -6  -8 -21   30.19    2.66
  -6  -8 -20  103.48    7.88
   6   8  20  117.25    8.29
  -6  -8 -19    2.27    1.07
   6   8  19    3.15    1.17
  -6  -8 -18  438.29    9.68
   6   8  18  455.59   10.27
  -6   8 -17    2.37    1.46
  -6  -8 -17    4.07    1.64
  -6  -8 -17    2.28    1.25
  -6   8 -17    2.90    1.72
   6   8  17    0.70    1.14
  -6  -8 -16 1019.10   69.77
  -6   8 -16 1097.87   70.64
  -6   8 -16 1116.36   70.53
   6   8  16 1146.62   70.38
  -6   8 -15    6.01    2.21
  -6  -8 -15    5.36    1.72
  -6   8 -15    2.60    1.54
  -6  -8 -14   18.20    2.92
  -6   8 -14   23.79    3.35
  -6   8 -14   15.40    2.73
  -6   8 -13    5.77    1.88
  -6  -8 -13    8.10    2.07
   6   8  13    3.15    2.95
  -6   8 -13    9.71    2.08
  -6   8 -12  148.21   10.71
  -6   8 -12  126.99   11.21
  -6  -8 -12  137.21   15.11
   6   8  12  109.95   14.11
  -6   8 -12  134.10   10.77
  -6  -8 -12  123.38   10.42
   6   8  12  127.90   10.32
  -6  -8 -11   15.52    4.65
  -6   8 -11    6.02    1.84
  -6   8 -11    3.76    1.67
  -6   8 -11    6.84    2.56
   6   8  11   14.37    4.40
  -6  -8 -11   11.41    2.56
  -6  -8 -11    7.47    2.03
   6   8  11   14.07    2.51
  -6  -8 -10 1016.51   68.88
   6   8  10 1113.65   75.20
  -6   8 -10 1077.13   68.90
  -6  -8 -10 1034.29   74.29
  -6  -8 -10 1000.26   68.80
   6   8  10 1091.45   68.67
  -6   8 -10 1092.73   68.78
  -6   8  -9    1.75    1.40
  -6  -8  -9   -1.49    2.47
   6   8   9    1.57    2.90
  -6  -8  -9    0.47    1.35
  -6  -8  -9    1.93    1.55
   6   8   9    1.99    1.19
   6   8   8   32.40    6.59
  -6   8  -8   27.90    4.08
  -6   8  -8   22.74    3.28
  -6  -8  -8   21.72    5.34
   6   8   8   27.97    3.45
  -6  -8  -8   28.79    3.75
  -6   8  -7   16.97    3.07
  -6  -8  -7    4.20    2.94
   6   8   7   10.59    4.22
  -6  -8  -7   16.40    2.85
   6   8   7   12.43    2.37
   6   8   6  969.65   69.21
  -6  -8  -6  977.03   63.77
  -6  -8  -6  953.61   68.41
   6   8   6  994.40   63.34
  -6   8  -6  965.15   64.14
  -6   8  -5    5.43    2.21
  -6  -8  -5   10.94    2.36
   6   8   5   11.59    3.85
  -6   8  -5    9.99    2.50
  -6   8  -4 1029.58   68.19
  -6  -8  -4 1037.43   67.94
   6   8   4 1092.06   67.55
  -6   8  -4 1006.72   68.42
   6   8   3    5.99    1.56
  -6  -8  -3    6.23    1.82
  -6   8  -3    6.39    1.93
  -6   8  -3    6.10    2.05
  -6  -8  -2  254.85   18.48
  -6   8  -2  289.03   19.25
   6   8   2  247.51   18.02
  -6   8  -2  264.02   18.70
  -6   8  -1    3.38    1.70
  -6   8  -1    4.18    1.73
  -6  -8  -1    0.78    1.30
   6   8   1    2.19    0.98
  -6   8   0  351.90   25.31
  -6  -8   0  363.47   24.84
   6   8   0  399.93   30.00
  -6   8   0  345.26   24.85
   6   8   0  378.32   24.54
  -6   8   1    7.71    2.02
  -6   8   1   12.58    2.13
  -6   8   1   12.67    2.53
   6   8  -1    6.59    3.31
  -6  -8   1    5.46    1.56
   6   8  -1    7.79    1.65
  -6   8   2   88.06    7.35
   6   8  -2   64.30    9.42
  -6   8   2   79.30    6.58
   6   8  -2   67.61    6.04
  -6   8   2   72.58    6.77
   6   8  -3    7.88    3.09
  -6   8   3    5.37    1.70
   6   8  -3    4.39    1.26
  -6   8   3    5.55    1.56
  -6   8   3    9.67    2.24
  -6   8   4  171.74   12.57
   6   8  -4  170.94   11.53
  -6   8   4  150.77   11.51
   6   8  -4  134.67   15.12
  -6   8   4  141.89   11.92
  -6   8   5    7.80    2.11
   6   8  -5   14.23    2.08
  -6   8   6  538.12   36.90
   6   8  -6  559.39   36.27
   6   8  -7    7.09    1.56
  -6   8   7    2.19    1.65
  -6   8   8 1491.93   96.04
  -6   8   9   34.94    4.23
  -6   8  10 1234.41   91.69
   6   8 -10 1365.64   86.94
  -6   8  10 1388.49   87.62
   6   8 -11    4.63    1.62
  -6   8  11    5.50    2.81
  -6   8  11    5.20    1.92
   6   8 -12  239.08   17.02
  -6   8  12  233.18   21.52
   6   8 -12  226.09   16.97
  -6   8  12  257.47   17.71
   6   8 -13   10.06    2.14
   6   8 -13   11.58    2.25
  -6   8  13    7.88    2.28
   6   8 -14  177.08   13.59
   6   8 -14  198.04   13.84
   6  -8 -14  172.19   14.06
  -6   8  14  181.58   14.04
   6   8 -15   11.61    2.35
   6  -8 -15    9.05    4.60
   6  -8 -15    5.89    2.21
   6   8 -15    4.38    1.79
  -6   8  15    8.04    2.28
   6  -8 -16   36.51    8.46
   6   8 -16   31.62    3.99
   6  -8 -16   28.74    4.13
  -6   8  16   35.05    4.28
   6   8 -16   30.18    3.88
   6  -8 -17    5.20    1.94
   6   8 -17    4.46    1.83
  -6   8  17    3.95    1.71
   6  -8 -18   74.51    6.71
   6   8 -18   67.96    6.35
   6  -8 -18   57.05   10.76
  -6   8  18   55.10    6.03
  -6   8  19    0.92    1.32
   6   8 -19    1.77    1.43
   6  -8 -19    4.67    1.81
   6  -8 -20 1157.98   71.61
   6   8 -20 1089.91   71.54
  -6   8  20 1063.70   71.43
  -6   8  21    4.71    1.74
   6   8 -21    1.40    1.51
   6   8 -22  276.23   19.38
  -6   8  22  267.22   18.86
  -6   8  23   20.94    2.67
   6   8 -23   23.06    3.14
   6   8 -24   70.83    6.27
   6   8 -25   19.35    2.64
   6   8 -26   18.90    2.23
   6   8 -26   12.78    1.96
   6   8 -27    4.72    1.03
  -6 -10 -19   24.80    2.10
  -6 -10 -17   -0.23    0.26
  -6 -10 -16   57.33    4.63
  -6 -10 -16   51.48    4.29
   6  10  15  139.24    9.60
  -6 -10 -15  117.50    9.12
  -6 -10 -15  127.08    9.36
  -6  10 -15  127.67    9.37
   6  10  14   33.29    3.50
  -6 -10 -14   36.35    3.42
  -6  10 -13   17.39    2.48
  -6 -10 -13   14.93    2.38
   6  10  13   15.22    2.39
   6  10  12  843.64   51.48
  -6  10 -12  749.44   51.18
  -6 -10 -12  779.29   51.35
  -6  10 -11  110.30    8.29
  -6 -10 -11   94.99    8.19
   6  10  11   98.12    8.18
  -6 -10 -10  490.36   34.25
  -6 -10 -10  501.71   34.30
   6  10  10  555.15   34.31
  -6  10 -10  501.56   34.00
  -6  10  -9   67.69    5.88
   6  10   9   71.41    6.01
  -6  10  -8  599.56   41.86
  -6 -10  -8  610.22   41.05
  -6  10  -8  609.25   40.70
   6  10   8  646.49   40.97
  -6 -10  -7   56.19    5.47
   6  10   7   51.76    8.54
  -6  10  -7   50.31    5.05
  -6  10  -7   47.41    5.70
  -6 -10  -7   49.42    5.52
   6  10   7   57.32    5.29
  -6 -10  -6   75.73    7.37
   6  10   6   82.54   11.29
  -6 -10  -6   84.66    7.35
  -6  10  -6   79.54    7.85
   6  10   6   84.26    7.15
  -6 -10  -6   77.11   10.33
   6  10   5  897.56   63.46
  -6 -10  -5  840.63   57.14
  -6 -10  -5  848.20   61.75
  -6 -10  -5  860.86   57.53
  -6  10  -5  854.67   57.89
   6  10   5  933.53   57.09
  -6  10  -4  652.30   50.79
   6  10   4  824.00   50.28
   6  10   4  683.38   55.65
  -6 -10  -4  801.99   50.47
  -6  10  -4  760.89   51.05
  -6 -10  -4  795.36   50.86
  -6  10  -3  460.96   29.88
  -6 -10  -3  406.34   28.88
  -6 -10  -3  442.33   29.52
   6  10   3  440.50   28.76
  -6  10  -3  374.17   29.48
  -6 -10  -2    9.10    2.17
   6  10   2    6.44    1.66
  -6  10  -2    6.45    2.27
  -6  10  -2    8.36    2.74
  -6  10  -1    1.77    2.07
   6  10   1    1.50    1.20
  -6 -10  -1    2.13    1.54
  -6  10  -1    0.52    1.43
  -6 -10   0  288.64   20.10
  -6  10   0  266.42   20.32
   6  10   0  312.61   20.01
  -6  10   1  773.33   48.63
  -6 -10   1  738.44   47.90
   6  10  -1  746.48   47.71
  -6  10   1  661.22   48.00
  -6  10   2 2969.50  174.83
  -6  10   2 2489.37  174.04
   6  10  -2 2814.68  173.81
  -6  10   3  833.69   52.83
  -6  10   3  740.51   52.06
   6  10  -3  821.53   51.91
  -6  10   4  140.66   11.36
   6  10  -4  159.30   10.83
  -6  10   5   50.60    5.44
   6  10  -5   55.26    4.85
   6  10  -6   59.13    5.44
  -6  10   6   68.08    6.69
  -6  10   6   75.70    6.93
   6  10  -7  120.13    9.35
  -6  10   7  118.92   10.00
   6  10  -7  112.94    8.79
  -6  10   7  111.53    9.89
   6  10  -8 1036.77   68.55
   6  10  -8 1018.39   68.05
  -6  10   8 1150.55   69.63
  -6  10   8 1080.42   69.42
   6  10  -9   74.10    6.87
  -6  10   9   79.66    7.56
   6  10  -9   73.33    6.54
   6  10 -10   56.50    5.25
   6  10 -10   52.62    5.43
  -6  10  10   62.03    6.18
  -6  10  10   58.46    6.02
   6  10 -11  404.33   27.25
  -6  10  11  405.42   28.30
   6  10 -12  488.64   32.09
  -6  10  12  469.77   32.90
   6  10 -13  854.44   53.85
   6 -10 -13  798.67   54.57
  -6  10  13  816.04   54.61
   6 -10 -14  162.46   13.37
   6  10 -14  172.37   12.75
  -6  10  14  188.23   13.63
   6  10 -15  380.16   25.75
   6 -10 -15  373.79   26.37
  -6  10  15  386.40   26.44
   6  10 -16  162.87   12.31
   6 -10 -16  167.26   12.85
  -6  10  16  175.37   12.95
   6  10 -17   46.52    4.76
   6 -10 -17   51.57    5.21
  -6  10  17   57.56    5.41
   6 -10 -18   81.74    7.21
   6 -10 -18   81.40    6.99
   6  10 -18   91.17    7.13
  -6  10  18   92.56    7.54
   6 -10 -19    3.00    1.35
   6  10 -19    0.90    1.08
   6 -10 -19   -0.50    1.00
  -6  10  19    2.10    1.26
  -6  10  20    8.94    1.78
   6  10 -20    6.89    1.54
   6 -10 -20   11.25    2.01
   6  10 -20    5.43    1.66
   6  10 -21    4.53    1.48
   6  10 -21    4.47    1.28
   6  10 -22   16.32    2.04
   6  10 -22   18.21    2.37
   6  10 -23   -0.43    0.78
   6  10 -23    1.76    0.73
   6  10 -24   11.65    1.46
  -6 -12 -14   14.52    1.47
  -6 -12 -13    7.61    1.17
  -6 -12 -13   11.56    1.34
  -6 -12 -12    3.51    0.94
  -6 -12 -12    3.18    0.92
  -6 -12 -11  368.59   24.27
   6  12  10   26.72    2.82
   6  12   9  148.41   10.66
  -6 -12  -8   14.62    2.30
   6  12   8   19.65    2.40
  -6 -12  -7  131.97   10.36
   6  12   7  146.62   10.31
   6  12   6   50.19    4.47
  -6 -12  -6   43.08    4.53
  -6 -12  -5 2009.10  131.70
  -6 -12  -5 2006.89  132.09
   6  12   5 2206.71  131.87
  -6 -12  -4   24.42    3.50
   6  12   4   26.02    3.14
  -6 -12  -3  581.22   38.41
   6  12   3  578.70   37.96
  -6 -12  -3  573.93   37.89
  -6 -12  -2   41.29    3.93
  -6 -12  -2   32.84    4.06
   6  12   2   35.11    3.77
  -6  12  -1    3.51    1.65
  -6 -12  -1    4.11    1.84
   6  12   1    6.51    1.56
  -6 -12   0   82.08    6.77
   6  12   0   73.85    6.06
  -6  12   1  726.47   49.25
  -6 -12   1  735.96   48.69
   6  12  -1  752.94   48.14
  -6  12   2   15.69    2.98
   6  12  -2   16.93    2.35
  -6 -12   2   11.49    2.47
  -6 -12   3  738.55   47.46
   6  12  -3  711.11   46.94
  -6 -12   4   37.15    4.09
   6  12  -4   40.93    3.97
   6  12  -5   14.94    2.24
  -6  12   6   30.28    3.93
  -6  12   6   32.42    3.54
   6  12  -6   22.06    2.94
   6 -12  -7  123.29   10.78
   6  12  -7  151.80   10.48
  -6  12   7  141.48   10.64
  -6  12   7  136.76   11.12
  -6  12   8    8.67    2.23
   6 -12  -8   11.68    2.32
   6  12  -8    8.91    1.78
  -6  12   8    5.90    1.75
  -6  12   9  571.99   38.31
   6 -12  -9  525.57   38.01
   6  12  -9  583.84   37.58
  -6  12   9  600.11   37.81
  -6  12  10    2.98    1.50
  -6  12  10    0.32    1.11
   6  12 -10    2.70    1.27
   6 -12 -10    4.89    1.79
  -6  12  11   12.94    2.36
  -6  12  11    8.91    1.85
   6  12 -11   13.14    2.01
   6 -12 -11    8.19    2.12
  -6  12  12   13.79    2.16
   6 -12 -12   16.99    2.62
  -6  12  12   11.14    2.23
  -6  12  13  352.58   23.97
  -6  12  13  349.15   23.42
  -6  12  14   85.82    7.15
   6 -12 -15  744.94   50.04
   6 -12 -15  784.54   50.00
  -6  12  15  795.03   50.28
  -6  12  16    4.91    1.30
   6 -12 -16    2.99    1.24
   6 -12 -16    4.12    1.19
   6 -12 -17  169.69   11.16
   6  12 -17  181.03   11.26
   6  12 -18    2.22    0.86
   6  12 -19  100.98    7.14
  -6 -14  -4  137.65    9.32
  -6 -14  -3  490.34   31.48
  -6 -14  -2   19.37    1.93
  -6 -14  -1    1.19    0.57
   6 -14  -1  205.79   13.75
   6 -14  -2  200.35   13.51
   6 -14  -3  168.65   11.59
   6 -14  -4   84.19    6.29
   6 -14  -5    0.19    0.75
   6 -14  -6   92.85    6.84
   6 -14  -7  424.80   27.64
   6 -14  -8  334.44   21.60
   6 -14  -8  323.14   21.65
   6 -14  -9  190.96   13.17
   6 -14  -9  202.13   13.30
   6 -14 -10  191.54   13.07
   6 -14 -10  200.85   13.17
  -7  -1 -26    3.28    1.04
  -7  -1 -25   41.43    4.01
  -7  -1 -24    8.78    1.93
  -7  -1 -23   23.94    3.20
  -7  -1 -22   -0.47    1.90
  -7  -1 -21   11.99    2.73
  -7  -1 -20  101.63    7.69
  -7  -1 -20   88.33    8.67
  -7  -1 -19  164.64   14.08
  -7  -1 -19  190.73   13.13
  -7  -1 -18    2.41    2.06
  -7  -1 -18    1.71    1.25
  -7  -1 -17   52.26    6.27
  -7  -1 -17   61.26   11.71
  -7  -1 -17   52.78    5.35
  -7   1 -17   73.06    6.36
  -7  -1 -17   66.93    6.77
  -7  -1 -16   22.34    3.01
  -7  -1 -16   21.16    3.92
  -7   1 -16   22.96    3.41
  -7   1 -16   22.54    2.82
  -7  -1 -16   29.20    4.40
  -7  -1 -15    4.62    4.68
  -7  -1 -15    4.92    1.44
  -7  -1 -15    1.81    1.95
  -7   1 -15    6.21    1.49
  -7  -1 -15    6.24    2.31
  -7   1 -15    1.35    1.31
  -7  -1 -14   40.88    4.27
  -7  -1 -14   49.54    5.36
  -7  -1 -14   41.24    4.76
  -7   1 -14   34.35    4.40
  -7   1 -14   44.08    4.10
  -7  -1 -14   44.52    5.29
  -7  -1 -13   10.39    4.87
  -7  -1 -13    5.54    1.85
  -7  -1 -13    5.47    2.09
  -7   1 -13    4.85    1.69
  -7  -1 -13    3.98    1.37
  -7  -1 -13    4.04    1.79
  -7   1 -13    2.74    1.16
  -7  -1 -12  136.65   10.27
  -7  -1 -12  141.86   11.12
  -7  -1 -12  121.42   10.53
  -7   1 -12  118.61   10.40
  -7   1 -12  141.38   10.03
  -7   1 -12  151.09   10.76
  -7  -1 -12  150.43   11.39
  -7  -1 -12  161.21   17.56
  -7   1 -11  270.66   18.86
  -7  -1 -11  267.47   19.83
  -7  -1 -11  269.78   19.56
  -7   1 -11  307.60   19.70
  -7  -1 -11  270.73   25.65
  -7  -1 -11  272.64   20.06
  -7  -1 -11  271.56   19.21
  -7   1 -11  293.61   19.54
  -7   1 -11  295.57   19.59
  -7   1 -10  813.20   54.30
  -7  -1 -10  789.53   53.97
  -7  -1 -10  832.23   53.78
  -7   1 -10  817.55   53.66
  -7   1 -10  844.05   53.69
  -7  -1 -10  825.07   60.85
  -7   1 -10  854.99   53.66
  -7  -1  -9   43.97    4.25
  -7   1  -9   40.69    4.09
  -7  -1  -9   45.97    7.65
  -7  -1  -8   52.75    4.93
  -7   1  -8   57.64    4.94
  -7  -1  -7  401.08   31.72
  -7  -1  -6  552.68   40.82
  -7  -1  -5  476.00   32.27
  -7  -1  -5  426.41   33.95
  -7  -1  -4 1546.08  107.30
  -7  -1  -4 1669.95  105.05
  -7  -1  -3  232.12   19.55
  -7  -1  -3  232.59   17.04
  -7  -1  -2 1065.03   71.45
  -7  -1  -2 1047.41   68.10
  -7  -1  -1  126.17   12.52
  -7  -1   0  196.73   17.13
  -7  -1   1  284.04   22.37
  -7  -1   2  906.24   58.85
   7  -1  -2  860.03   59.22
  -7  -1   3  537.96   36.55
   7  -1  -3  538.18   37.12
  -7  -1   4  630.26   40.00
   7  -1  -4  557.29   40.31
   7   1  -5    3.40    0.77
  -7  -1   5    0.88    1.37
  -7  -1   6  535.89   36.00
  -7  -1   7   30.41    3.82
  -7  -1   8 2470.83  148.95
   7  -1  -8 2234.55  148.07
   7  -1  -9  595.37   41.40
  -7  -1   9  663.59   42.16
  -7  -1  10  825.81   40.25
   7  -1 -10  728.49   39.12
   7  -1 -11   63.01    6.27
  -7  -1  11   51.71    6.27
   7  -1 -12  509.40   35.90
  -7  -1  12  530.96   36.58
   7  -1 -13    5.81    2.16
  -7  -1  13   10.55    3.05
   7  -1 -13   15.21    3.29
   7  -1 -14 1693.35  110.34
   7  -1 -14 1647.16  109.69
  -7  -1  14 1703.96  110.31
  -7  -1  15  136.42   13.14
   7  -1 -15  135.35   12.78
   7  -1 -15  139.17   13.09
  -7  -1  16 1324.64   88.33
   7  -1 -16 1310.80   88.18
   7  -1 -16 1161.64   87.26
   7  -1 -16 1382.88   84.12
   7   1 -16 1294.46   84.14
   7  -1 -17   24.79    2.90
   7  -1 -17   14.52    3.91
   7  -1 -17   30.28    5.68
   7   1 -17   16.52    2.75
   7   1 -17   22.03    2.47
  -7  -1  17   15.33    4.44
   7  -1 -18   39.24    6.42
   7   1 -18   32.37    3.29
   7   1 -18   29.62    3.69
   7  -1 -18   30.12    3.66
  -7  -1  18   30.68    5.96
   7   1 -18   35.09    3.55
   7  -1 -18   44.23    7.07
   7  -1 -19  496.07   39.96
   7   1 -19  545.36   35.07
   7  -1 -19  534.35   40.53
   7   1 -19  534.86   35.31
   7  -1 -19  525.12   35.49
  -7  -1  19  555.48   40.86
   7  -1 -20  348.06   23.47
   7   1 -20  326.05   23.16
   7   1 -20  347.93   22.95
  -7  -1  20  327.12   28.40
   7  -1 -21  190.13   14.57
   7   1 -21  207.69   14.24
   7   1 -21  194.92   14.47
  -7  -1  21  209.37   19.98
   7   1 -22  609.83   39.48
   7  -1 -22  604.60   40.00
   7   1 -22  572.84   39.75
   7  -1 -22  636.67   46.92
  -7  -1  22  617.20   46.30
   7  -1 -23  220.91   21.15
  -7  -1  23  200.09   20.14
   7   1 -23  202.68   14.23
   7  -1 -23  187.64   14.58
   7   1 -23  191.95   14.53
   7  -1 -24    5.62    4.69
   7  -1 -24    8.08    2.12
  -7  -1  24    3.51    2.97
  -7   1  24   13.33    4.76
   7   1 -24   15.39    2.32
  -7  -1  25  100.87   13.25
  -7   1  25   78.71   12.45
   7   1 -25  101.68    7.90
   7  -1 -25  104.01    8.42
   7   1 -25   67.52   12.29
   7  -1 -25   89.93   13.00
   7   1 -26  297.40   20.60
   7  -1 -26  304.20   21.24
   7  -1 -27    3.85    1.82
   7  -1 -28  262.84   18.75
   7  -1 -29    8.74    2.04
   7  -1 -30    9.28    1.98
   7  -1 -31    8.83    1.70
   7  -1 -32  118.04    8.69
  -7  -3 -25    6.01    1.18
  -7   3 -25   10.05    1.57
  -7  -3 -24   96.47    7.38
  -7   3 -24  100.26    7.80
  -7  -3 -23   22.32    2.98
  -7   3 -23   34.63    3.82
  -7   3 -22   67.87    6.50
  -7  -3 -22   58.90    5.76
  -7  -3 -22   66.51    5.28
  -7   3 -21    8.66    2.29
  -7  -3 -21   11.14    2.45
  -7  -3 -21   10.76    1.88
  -7  -3 -20    5.56    1.55
  -7  -3 -20    5.52    1.93
  -7   3 -20    5.47    2.27
  -7  -3 -19   33.34    4.69
  -7   3 -19   49.02    5.93
  -7   3 -19   35.63    4.63
  -7  -3 -19   46.92    4.51
  -7  -3 -18   22.54    3.45
  -7   3 -18   23.88    4.21
  -7   3 -18   19.67    3.46
  -7  -3 -18   16.88    2.79
  -7  -3 -17  239.99   19.49
  -7   3 -17  281.49   20.83
  -7   3 -17  270.11   19.55
  -7  -3 -17  274.82   19.92
  -7   3 -17  268.50   19.31
  -7  -3 -17  285.01   19.24
  -7  -3 -16   23.71    3.67
  -7   3 -16   16.71    3.03
  -7  -3 -16   23.75    3.22
  -7   3 -16   12.40    2.63
  -7  -3 -16   17.87    3.36
  -7   3 -16   18.34    3.95
  -7   3 -15   36.31    4.98
  -7  -3 -15   27.98    6.99
  -7   3 -15    8.30    4.28
  -7  -3 -15   15.65    3.15
  -7  -3 -15   16.70    3.30
  -7   3 -15   25.11    3.48
  -7  -3 -15   14.42    2.86
  -7   3 -15   23.22    3.19
  -7  -3 -15   20.11    3.06
  -7   3 -15   14.62    2.81
  -7  -3 -15   19.01    2.49
  -7  -3 -14  201.84   15.05
  -7   3 -14  239.76   16.67
  -7  -3 -14  183.78   14.89
  -7  -3 -14  219.88   15.37
  -7   3 -14  168.35   14.16
  -7  -3 -14  204.72   14.55
  -7  -3 -14  178.97   20.82
  -7   3 -14  182.05   14.37
  -7   3 -14  172.69   18.81
  -7  -3 -14  203.59   13.96
  -7  -3 -13  179.92   14.31
  -7   3 -13  208.72   15.53
  -7  -3 -13  166.17   14.18
  -7   3 -13  224.16   15.32
  -7  -3 -13  216.68   21.33
  -7   3 -13  186.08   13.86
  -7  -3 -13  199.59   14.71
  -7  -3 -13  186.01   13.95
  -7   3 -13  179.55   18.43
  -7  -3 -13  181.78   13.45
  -7   3 -13  184.46   13.93
  -7  -3 -12    1.88    2.72
  -7   3 -12    5.62    3.09
  -7  -3 -12    4.56    1.41
  -7  -3 -12    6.14    1.94
  -7   3 -12    1.28    1.94
  -7   3 -12    4.30    1.97
  -7   3 -12    7.06    1.77
  -7  -3 -12    7.96    2.16
  -7   3 -12    6.75    1.70
  -7  -3 -12    7.07    2.36
  -7  -3 -12    6.04    3.08
  -7  -3 -11  574.60   42.12
  -7  -3 -11  506.57   36.97
  -7   3 -11  567.37   38.08
  -7  -3 -11  536.98   37.08
  -7   3 -11  567.76   41.67
  -7   3 -11  534.49   36.73
  -7  -3 -11  554.87   37.32
  -7   3 -11  552.41   36.65
  -7  -3 -11  604.16   44.26
  -7  -3 -11  546.83   36.52
  -7   3 -11  552.06   36.66
  -7   3 -11  645.01   37.80
  -7  -3 -10  471.76   30.58
  -7   3 -10  427.05   31.10
  -7  -3 -10  477.61   30.55
  -7   3 -10  424.86   30.01
  -7  -3 -10  536.99   35.87
  -7  -3 -10  536.89   37.83
  -7   3 -10  423.95   29.87
  -7  -3 -10  499.12   30.17
  -7  -3 -10  501.37   30.88
  -7   3 -10  422.99   34.13
  -7   3 -10  384.47   29.75
  -7   3  -9 1189.89   76.79
  -7  -3  -9 1227.23   81.48
  -7   3  -9 1193.60   81.13
  -7  -3  -9 1196.12   83.18
  -7   3  -8   24.99    2.76
  -7  -3  -8   15.75    4.06
  -7  -3  -8    9.84    3.86
  -7   3  -8   16.51    3.99
  -7   3  -7   38.55    3.70
  -7  -3  -7   34.91    6.48
  -7   3  -7   34.26    5.66
  -7  -3  -7   36.91    5.95
  -7  -3  -6  172.08   13.28
  -7   3  -6  206.41   13.43
  -7   3  -6  205.64   16.48
  -7  -3  -6  226.41   16.73
  -7  -3  -6  161.87   16.78
  -7  -3  -5   78.77    6.58
  -7  -3  -5   74.42    9.54
  -7   3  -5   80.24    8.77
  -7   3  -5   95.80    6.69
  -7  -3  -5   94.17    9.00
  -7  -3  -4  105.87    8.50
  -7   3  -4  128.35    8.56
  -7  -3  -4  108.25   11.67
  -7   3  -4  118.49   10.91
  -7  -3  -4  132.45   10.87
  -7  -3  -3  367.01   24.86
  -7  -3  -3  387.88   28.62
  -7   3  -3  391.97   27.62
  -7  -3  -3  399.36   27.02
  -7  -3  -2  436.44   34.19
  -7   3  -2  429.08   33.17
  -7  -3  -2  530.96   32.90
  -7   3  -2  488.95   31.03
  -7   3  -2  468.05   31.16
  -7  -3  -1  397.27   31.35
  -7   3  -1  417.39   30.64
  -7  -3  -1  461.56   29.62
  -7  -3   0  288.19   22.25
  -7   3   0  280.71   21.45
   7   3  -1 4858.47  291.39
  -7  -3   1 4863.36  292.74
  -7   3   1 4692.13  292.18
   7  -3  -1 4072.36  291.17
   7  -3  -2   18.88    3.23
   7   3  -2   10.32    2.46
  -7  -3   2   14.77    3.87
  -7   3   2   11.20    3.14
  -7  -3   3 3531.24  232.53
  -7   3   3 3522.60  232.79
   7   3  -3 3852.50  232.24
   7  -3  -3 3679.11  232.56
   7   3  -3 3690.65  232.62
  -7  -3   4  412.38   26.91
   7   3  -4  386.49   26.49
  -7   3   4  351.94   26.87
   7   3  -5 1221.21   82.17
  -7  -3   5 1394.30   82.61
  -7   3   5 1213.08   82.70
   7   3  -6   93.97    7.36
  -7  -3   6   88.39    7.38
  -7   3   7  742.55   51.95
  -7   3   7  799.49   50.73
  -7  -3   7  793.18   51.62
  -7   3   8  454.90   34.18
  -7  -3   8  560.15   34.25
  -7   3   8  491.59   32.92
  -7  -3   9  252.23   17.02
  -7   3   9  211.36   17.07
  -7   3   9  214.58   15.60
  -7  -3  10   24.64    3.69
  -7   3  10   16.09    3.43
  -7   3  10   21.91    2.79
  -7  -3  11   90.56    8.03
  -7   3  11   78.17    8.03
   7   3 -11   69.82    7.71
   7  -3 -11   63.75    7.07
  -7   3  11   65.08    6.18
   7  -3 -12    3.57    1.97
  -7  -3  12    3.56    1.97
  -7   3  12    3.50    2.06
  -7   3  12    5.57    1.52
   7  -3 -12    4.18    1.93
  -7   3  12    2.55    0.89
  -7   3  13 1251.29   84.12
   7  -3 -13 1249.39   84.08
   7   3 -13 1291.56   83.91
   7  -3 -13 1368.03   83.35
  -7   3  13 1186.17   79.89
  -7  -3  13 1431.92   83.70
   7  -3 -14 1413.05   89.77
   7   3 -14 1311.18   89.08
  -7  -3  14 1529.38   89.20
   7  -3 -14 1456.86   88.73
  -7   3  14 1257.21   89.32
  -7   3  14 1271.62   84.93
  -7  -3  15 1351.67   82.15
   7   3 -15 1337.27   77.78
   7  -3 -15 1162.10   82.19
  -7   3  15 1189.53   82.60
   7   3 -15 1229.86   82.21
   7  -3 -15 1385.66   81.91
  -7   3  15 1071.25   77.41
  -7  -3  16   45.17    7.36
   7   3 -16   50.57    7.78
  -7   3  16   47.59    7.95
   7  -3 -16   68.70    5.26
   7   3 -16   62.32    5.42
   7  -3 -16   47.47    7.22
   7  -3 -16   68.53    8.82
   7   3 -16   59.68    5.10
  -7   3  16   52.23    4.89
   7  -3 -17   33.97    5.89
  -7  -3  17   41.10    6.56
  -7   3  17   25.89    6.30
   7   3 -17   34.24    3.82
   7  -3 -17   50.03    7.54
   7   3 -17   32.94    3.60
   7  -3 -17   32.32    3.51
   7   3 -17   27.39    6.08
  -7   3  17   32.58    3.43
  -7   3  18   69.81   10.54
   7   3 -18   82.09    6.84
   7  -3 -18   81.72   10.90
   7   3 -18   80.86    7.06
  -7  -3  18   91.60   10.75
   7  -3 -18   87.88    6.93
   7  -3 -19  275.38   19.55
  -7  -3  19  348.48   25.67
   7   3 -19  288.18   19.94
   7   3 -19  306.62   19.83
   7  -3 -19  262.91   24.71
  -7  -3  20   43.62    7.71
  -7   3  20   40.36    8.40
   7   3 -20   49.79    4.67
   7  -3 -20   46.74    8.38
   7  -3 -20   37.48    4.27
   7   3 -20   41.28    4.61
   7   3 -20   48.13    4.80
  -7   3  21  488.43   49.26
   7  -3 -21  660.48   44.11
   7  -3 -21  687.56   51.37
   7   3 -21  708.24   44.32
  -7  -3  21  708.08   50.51
   7   3 -21  699.16   44.52
   7   3 -21  693.43   51.56
   7  -3 -21  600.45   49.27
   7   3 -21  678.44   44.53
   7  -3 -22    4.62    1.50
  -7  -3  22    1.59    2.94
  -7   3  22    1.90    3.51
   7   3 -22    0.40    1.37
   7  -3 -22    1.84    2.15
   7   3 -22    3.62    1.60
   7   3 -22    2.24    1.53
   7   3 -22    1.87    3.09
   7  -3 -22    1.58    2.26
   7  -3 -23   99.76    8.14
   7   3 -23   94.03    8.07
  -7   3  23   80.97   12.61
  -7  -3  23  103.78   12.90
   7   3 -23  100.20    8.44
   7  -3 -23  106.30   13.06
   7   3 -23   96.45    8.39
   7   3 -23   91.11   13.35
   7   3 -24  135.53   10.70
  -7  -3  24  114.02   14.41
  -7   3  24  104.09   15.19
   7   3 -24  123.38   10.25
   7  -3 -24  125.68   15.14
   7   3 -24  132.95   16.43
   7  -3 -24  147.26   10.52
   7   3 -24  137.04   10.72
   7   3 -25   18.01    2.76
   7   3 -25   14.44    2.76
   7  -3 -25   13.59    2.57
   7   3 -25   16.03    2.85
   7  -3 -26   37.41    4.14
   7   3 -26   35.78    3.94
   7   3 -26   33.91    4.20
   7  -3 -26   41.59    4.13
   7  -3 -27  191.99   15.07
   7   3 -27  218.47   15.65
   7   3 -27  224.92   15.24
   7   3 -28  191.32   13.83
   7  -3 -28  189.41   13.96
   7   3 -28  201.63   14.41
   7  -3 -29   82.35    7.04
   7   3 -29  101.71    7.59
   7   3 -29   81.79    6.81
   7  -3 -30    0.27    0.95
   7   3 -30    2.45    0.99
   7   3 -30    1.85    1.17
   7   3 -31    1.15    0.94
   7  -3 -31    3.46    1.02
  -7  -5 -23  129.74    3.64
   7   5  23  142.42    4.79
  -7   5 -22   -0.24    0.54
  -7  -5 -22    1.62    0.92
  -7   5 -21  118.26    9.01
  -7  -5 -21  106.50    8.44
  -7  -5 -21  124.85    8.74
  -7  -5 -20   31.60    3.49
  -7   5 -20   35.97    4.08
  -7  -5 -20   36.90    3.72
  -7  -5 -19  154.65   11.97
  -7  -5 -19  181.32   12.35
  -7   5 -19  157.33   12.59
  -7  -5 -18   59.65    5.68
  -7   5 -18   53.41    6.21
  -7   5 -18   55.70    6.13
  -7  -5 -17  486.03   36.91
  -7   5 -17  551.34   37.95
  -7  -5 -17  560.77   36.53
  -7  -5 -17  639.03   37.67
  -7   5 -17  568.40   37.66
  -7   5 -17  571.72   37.86
  -7  -5 -16   48.95    5.27
  -7  -5 -16   40.47    5.01
  -7   5 -16   57.91    6.26
  -7  -5 -16   46.84    4.73
   7   5  16   45.47    7.93
  -7   5 -16   54.65    5.58
  -7  -5 -15  591.89   39.77
  -7   5 -15  600.20   40.67
  -7   5 -15  576.65   40.09
  -7  -5 -15  610.64   40.01
  -7  -5 -15  677.27   47.43
  -7   5 -15  551.21   39.83
  -7  -5 -15  623.80   39.48
  -7   5 -14    4.06    2.60
  -7  -5 -14   14.76    2.73
  -7   5 -14    4.23    2.17
  -7  -5 -14   11.63    2.35
  -7   5 -14   10.35    2.49
  -7  -5 -14    1.73    2.89
  -7   5 -14    3.62    1.65
  -7  -5 -14   14.54    2.36
  -7  -5 -13  283.64   20.04
  -7   5 -13  262.79   20.56
  -7   5 -13  286.60   20.22
  -7  -5 -13  304.25   19.99
  -7  -5 -13  319.91   26.53
  -7   5 -13  280.04   19.35
  -7   5 -13  311.47   21.48
  -7  -5 -13  259.95   19.70
  -7   5 -13  267.99   19.87
  -7  -5 -12    3.33    1.69
  -7  -5 -12   -1.53    4.00
  -7   5 -12   -1.17    3.49
  -7  -5 -12    0.48    1.42
  -7  -5 -12    0.44    2.19
  -7   5 -12    1.62    1.34
  -7   5 -12    0.90    1.29
  -7  -5 -12    1.59    2.63
  -7  -5 -12    0.79    1.31
  -7   5 -12    0.30    0.98
  -7   5 -12    0.57    2.37
  -7   5 -12   -0.61    1.89
  -7  -5 -11   33.64    7.08
  -7   5 -11   24.32    5.39
  -7  -5 -11   32.67    4.14
  -7   5 -11   33.06    4.48
  -7   5 -11   34.81    4.11
  -7  -5 -11   24.04    5.97
  -7   5 -11   38.56    3.63
  -7   5 -11   34.08    3.87
  -7  -5 -11   40.53    4.10
  -7   5 -11   41.40    4.91
  -7  -5 -11   35.27    4.16
  -7  -5 -10   70.46   10.04
  -7   5 -10   76.12    7.28
  -7   5 -10   87.27    6.36
  -7  -5 -10   78.17    6.96
  -7  -5 -10   56.43    9.22
  -7  -5 -10   59.50    6.52
  -7   5 -10   83.59    6.70
  -7  -5 -10   67.90    6.50
  -7   5 -10   88.20    7.02
  -7   5 -10   78.45    9.27
  -7   5 -10   73.96    7.11
  -7   5  -9  177.53   13.61
  -7   5  -9  175.38   13.45
  -7   5  -9  169.49   13.01
  -7  -5  -9  166.67   16.97
  -7  -5  -9  183.95   13.00
  -7   5  -9  191.43   12.99
  -7  -5  -9  162.31   16.70
  -7  -5  -9  184.26   13.50
  -7   5  -9  165.23   15.53
  -7   5  -9  175.65   12.49
  -7  -5  -9  171.99   13.22
  -7   5  -8    6.25    2.25
  -7  -5  -8    3.67    1.62
  -7  -5  -8    3.65    2.69
  -7   5  -8    9.03    1.52
  -7   5  -8    7.54    1.72
  -7  -5  -8    8.53    3.21
  -7  -5  -8    9.08    2.11
  -7   5  -8    5.11    1.37
  -7   5  -8    7.83    1.87
  -7  -5  -8    3.23    1.33
  -7   5  -7  111.00    8.68
  -7   5  -7   98.59   10.62
  -7  -5  -7  129.34   12.57
  -7  -5  -7  113.28    9.09
  -7  -5  -7  128.96    9.32
  -7  -5  -7  121.02   12.45
  -7   5  -7  111.03    8.49
  -7   5  -7  109.60    8.93
  -7   5  -7  105.31    8.13
  -7  -5  -6  399.78   27.50
  -7  -5  -6  469.32   31.76
  -7   5  -6  440.95   30.04
  -7   5  -6  435.45   27.02
  -7  -5  -6  385.28   27.77
  -7  -5  -6  405.54   27.94
  -7   5  -6  385.12   27.59
  -7  -5  -6  432.57   31.40
  -7  -5  -5 1783.90  114.18
  -7  -5  -5 1881.14  118.08
  -7   5  -5 1708.71  116.15
  -7  -5  -5 1882.41  118.00
  -7  -5  -4  112.81   11.22
  -7   5  -4  120.80   10.42
  -7  -5  -4  115.03    8.68
  -7  -5  -4  119.06   11.32
  -7   5  -4  112.49    8.98
  -7  -5  -3 1262.68   77.53
  -7   5  -3 1160.44   78.05
  -7  -5  -3 1354.96   80.88
  -7   5  -3 1202.56   79.17
  -7   5  -3 1156.92   77.76
  -7   5  -2  738.18   48.00
   7  -5   2  641.18   48.59
  -7   5  -2  670.67   46.94
  -7  -5  -2  819.95   49.44
   7   5   2  695.22   48.44
  -7   5  -2  763.57   46.82
  -7   5  -1   13.41    2.14
   7   5   1   14.30    2.74
  -7   5  -1   11.09    2.24
   7  -5   1   10.91    2.56
  -7  -5  -1   18.15    3.25
  -7  -5   0  199.65   15.50
  -7   5   0  181.57   14.11
   7   5   0  172.26   15.94
  -7   5   0  186.30   14.58
   7  -5   0  203.31   15.13
   7   5   0  197.00   15.06
  -7   5   0  225.12   14.00
   7   5  -1  931.66   57.14
  -7  -5   1  978.95   59.65
  -7   5   1  862.53   58.52
  -7   5   1  759.24   57.82
   7   5  -1  947.52   60.67
   7   5  -1  882.36   58.81
  -7   5   1  939.07   57.65
  -7  -5   2  146.90   12.46
  -7   5   2  144.21   11.79
   7   5  -2  149.68   13.22
  -7   5   2  160.11   10.93
  -7  -5   3  734.17   50.95
  -7   5   3  719.42   50.27
   7   5  -3  762.18   51.72
  -7   5   3  787.78   48.96
  -7  -5   4  151.25   12.91
  -7   5   4  141.52   12.44
   7   5  -4  133.88   12.81
  -7   5   4  165.76   10.95
  -7  -5   5   23.47    4.13
  -7   5   5   28.47    4.40
   7   5  -5   27.96    4.42
  -7   5   5   26.07    2.77
  -7  -5   6  299.58   21.15
   7   5  -6  257.18   21.95
  -7   5   6  269.35   21.17
  -7   5   6  315.38   19.78
  -7   5   7 1484.15   96.82
  -7  -5   7 1535.16   96.45
  -7   5   7 1457.52   96.97
  -7   5   7 1491.83   94.97
   7  -5  -8  428.19   26.98
   7   5  -8  376.43   27.11
  -7   5   8  395.94   27.81
  -7  -5   8  355.12   26.86
  -7   5   8  379.64   25.71
  -7   5   8  413.67   27.74
  -7  -5   9 2196.71  129.63
   7  -5  -9 2127.21  129.34
   7   5  -9 1983.39  129.70
  -7   5   9 1919.39  129.91
  -7   5   9 2047.37  130.02
  -7   5   9 1926.81  127.85
   7  -5 -10  196.67   14.46
   7   5 -10  178.10   14.73
  -7   5  10  180.98   14.89
  -7   5  10  181.91   14.91
  -7   5  10  180.34   12.97
  -7  -5  10  184.17   14.35
  -7   5  11  696.57   47.02
   7   5 -11  689.70   46.92
   7  -5 -11  716.23   46.33
  -7   5  11  674.04   46.70
  -7  -5  11  717.25   46.38
  -7   5  11  652.77   44.44
   7   5 -12   37.47    3.65
  -7   5  12   30.77    4.89
   7  -5 -12   44.03    5.16
   7   5 -12   31.92    4.98
  -7  -5  12   39.16    5.03
  -7   5  12   35.84    5.28
  -7   5  12   33.96    3.68
  -7  -5  13   83.98    8.93
  -7   5  13   79.51    9.32
   7   5 -13  100.35    7.17
   7   5 -13  109.38   10.22
   7  -5 -13   82.84    8.68
  -7   5  13   77.17    6.99
   7   5 -14  378.68   23.83
   7  -5 -14  337.65   29.23
  -7  -5  14  381.92   26.52
   7   5 -14  347.06   23.54
   7  -5 -14  329.85   25.81
  -7   5  14  324.36   23.62
  -7   5  14  328.36   26.81
   7   5 -14  362.93   27.05
   7  -5 -15  555.83   41.45
  -7  -5  15  572.69   38.05
   7   5 -15  548.53   34.60
   7  -5 -15  530.95   35.08
   7   5 -15  564.94   34.77
  -7   5  15  487.97   38.18
  -7   5  15  428.95   34.33
   7   5 -15  537.79   34.31
   7  -5 -16    5.13    3.51
  -7  -5  16    8.17    3.10
  -7   5  16    8.59    3.26
   7   5 -16   10.03    1.94
   7  -5 -16   10.48    2.33
   7   5 -16   10.68    2.05
   7   5 -16   10.32    1.87
  -7   5  16    6.83    1.84
  -7   5  17   17.23    4.57
   7  -5 -17   12.66    4.78
   7   5 -17   17.14    2.53
  -7  -5  17   14.57    3.99
   7  -5 -17    5.71    2.01
   7   5 -17   10.65    1.99
  -7   5  17   10.62    2.17
   7  -5 -18  110.67    8.74
   7   5 -18  127.94    9.59
   7   5 -18  134.52   13.88
   7  -5 -18  126.41    9.68
   7   5 -18  131.03    9.29
   7  -5 -18  117.75   14.95
  -7   5  18  113.21   13.29
   7  -5 -18  102.17   11.89
  -7  -5  18  128.61   13.04
  -7   5  18   94.26    9.03
   7  -5 -19 1176.33   79.02
   7   5 -19 1148.03   69.79
  -7   5  19 1082.81   75.71
   7   5 -19 1156.54   70.24
   7  -5 -19 1031.42   69.26
   7  -5 -19 1179.41   70.18
   7   5 -19 1149.41   76.01
   7  -5 -19 1080.41   74.22
  -7  -5  19 1162.95   75.21
  -7   5  19  893.53   69.55
   7   5 -20  167.83   18.68
   7  -5 -20  221.51   22.16
   7   5 -20  225.16   14.36
   7  -5 -20  186.56   13.69
  -7  -5  20  186.08   18.54
  -7   5  20  160.48   18.34
   7   5 -20  220.50   14.69
   7  -5 -20  188.41   14.17
  -7   5  20  170.02   14.00
  -7   5  21 2557.72  168.26
   7  -5 -21 2687.81  171.64
   7  -5 -21 2509.94  161.24
   7   5 -21 2755.30  161.78
   7   5 -21 2561.58  168.44
   7   5 -21 2833.93  162.28
  -7   5  21 2191.35  161.36
   7   5 -22   61.55    5.91
   7  -5 -22   53.48    5.24
   7  -5 -22   55.10   10.47
   7   5 -22   38.43    9.12
  -7   5  22   61.49    9.97
   7   5 -22   67.50    5.81
   7   5 -22   76.50    6.57
   7  -5 -23  870.09   57.31
   7   5 -23  845.35   57.95
   7   5 -23  948.93   57.83
   7   5 -23  883.07   58.31
   7   5 -24    5.57    1.74
   7   5 -24    5.23    1.76
   7   5 -24    2.42    1.47
   7  -5 -24    6.94    1.50
   7  -5 -25    5.07    1.55
   7   5 -25   11.21    2.27
   7   5 -25    5.68    1.72
   7   5 -25   11.60    2.44
   7  -5 -26    4.13    1.38
   7   5 -26    4.26    1.56
   7   5 -26    1.75    1.50
   7  -5 -27   45.14    4.10
   7   5 -27   43.82    4.26
   7   5 -27   41.50    4.38
   7   5 -27   40.55    4.47
   7   5 -28    0.24    0.65
   7   5 -28   41.22    3.18
   7   5 -29    3.25    1.20
   7   5 -30   29.87    2.81
  -7  -7 -22  286.95   18.65
  -7  -7 -21  154.58   10.39
   7   7  21  144.59   10.61
  -7  -7 -20  249.63   17.32
   7   7  20  266.21   17.66
  -7  -7 -19   36.02    3.76
   7   7  19   43.23    4.12
  -7   7 -18    6.89    1.95
  -7  -7 -18    1.63    1.26
  -7  -7 -18   -0.20    0.28
   7   7  18    5.60    1.53
   7   7  17    1.90    1.26
  -7   7 -17    0.85    1.36
  -7   7 -17    1.39    1.53
  -7  -7 -17    1.47    1.30
  -7  -7 -17    2.63    1.13
  -7   7 -16   90.69    7.65
  -7   7 -16   84.86    7.75
  -7  -7 -16   75.98    6.85
   7   7  16   96.18    7.58
  -7   7 -15    3.02    1.78
  -7  -7 -15    1.47    1.27
   7   7  14   46.70    8.52
  -7   7 -14   62.86    6.20
  -7   7 -14   55.11    5.81
  -7  -7 -14   66.98    5.88
  -7  -7 -14   59.21    9.15
  -7  -7 -13    3.88    1.66
  -7   7 -13    6.72    1.94
  -7   7 -13   10.35    2.94
  -7  -7 -13    6.29    3.45
  -7   7 -13    5.56    2.02
   7   7  12 1310.50   91.97
  -7  -7 -12 1353.38   91.92
  -7   7 -12 1337.11   86.20
  -7  -7 -12 1240.64   85.73
  -7   7 -12 1363.72   85.84
  -7   7 -12 1410.63   87.14
  -7   7 -11  405.34   28.54
  -7  -7 -11  422.74   27.80
   7   7  11  412.44   33.30
  -7  -7 -11  405.49   33.02
  -7   7 -11  386.89   27.76
  -7   7 -11  391.04   27.38
   7   7  10  695.11   50.28
  -7   7 -10  657.85   44.27
  -7  -7 -10  642.16   49.32
  -7  -7 -10  659.25   44.32
  -7   7 -10  672.95   45.01
  -7  -7 -10  616.02   44.13
  -7   7 -10  722.35   44.11
  -7   7  -9  186.52   15.04
  -7   7  -9  200.91   14.64
  -7  -7  -9  198.98   14.78
   7   7   9  210.39   19.70
  -7  -7  -9  178.20   18.42
  -7  -7  -9  184.17   14.59
  -7   7  -9  205.45   14.37
  -7   7  -8  296.70   19.81
  -7   7  -8  283.39   20.53
  -7   7  -8  294.64   20.05
  -7  -7  -8  272.23   24.27
   7   7   8  282.45   24.88
  -7  -7  -8  274.75   20.11
  -7  -7  -8  264.36   20.08
  -7   7  -7   36.59    4.20
   7   7   7   31.48    6.47
  -7  -7  -7   46.94    7.45
  -7  -7  -7   33.63    4.22
   7   7   7   41.24    4.11
  -7   7  -6   98.06    8.49
  -7  -7  -6  111.52   12.24
  -7  -7  -6  111.60    8.96
   7   7   6  108.90    8.50
   7   7   6  116.19   12.95
  -7   7  -5   23.54    3.70
  -7  -7  -5   37.74    6.40
  -7  -7  -5   36.68    4.37
   7   7   5   30.09    3.57
  -7  -7  -4  708.74   48.31
  -7   7  -4  739.40   48.49
   7   7   4  755.71   47.90
  -7  -7  -3  207.20   14.13
  -7  -7  -3  196.18   14.57
  -7   7  -3  172.12   14.36
   7   7   3  219.13   14.22
   7   7   2    6.08    2.76
  -7  -7  -2   11.95    2.21
  -7   7  -2   12.54    2.27
   7   7   2    8.39    1.65
  -7   7  -1    6.51    1.63
  -7   7  -1    2.51    1.45
  -7  -7  -1    2.15    1.25
   7   7   1    8.28    3.53
   7   7   1    4.29    1.20
  -7  -7   0   83.92    7.35
   7   7   0   82.03   10.27
   7   7   0   95.06    7.04
  -7   7   0   93.29    7.44
  -7   7   0   87.66    7.64
  -7   7   1  597.54   39.60
   7   7  -1  627.39   44.11
   7   7  -1  625.19   39.23
  -7   7   1  568.05   39.86
   7   7  -2 2260.12  146.90
   7   7  -2 2186.28  141.99
  -7   7   2 2310.10  142.47
  -7   7   2 2252.03  142.82
   7   7  -3 1090.98   74.59
  -7   7   3 1110.66   70.20
  -7   7   3 1048.25   70.54
   7   7  -3 1106.75   69.85
  -7   7   4  580.83   37.63
   7   7  -4  574.78   41.90
   7   7  -4  576.58   37.35
  -7   7   4  563.07   38.05
   7   7  -5   52.10    7.44
  -7   7   5   56.14    4.73
   7   7  -5   56.31    4.62
  -7   7   5   42.57    4.78
  -7   7   6   15.68    2.43
  -7   7   7   79.89    6.92
  -7   7   8  734.32   48.20
  -7   7   9  205.91   15.02
  -7   7  10  260.76   22.01
  -7   7  10  264.14   18.71
  -7   7  11   36.12    6.22
   7   7 -11   47.54    4.40
  -7   7  11   36.17    4.29
   7   7 -12 1762.03  110.93
  -7   7  12 1604.86  114.60
  -7   7  12 1763.23  111.35
   7   7 -13  409.02   25.85
   7   7 -13  370.62   25.65
  -7   7  13  349.00   25.86
   7   7 -14 1706.82  108.89
   7   7 -14 1682.19  108.87
  -7   7  14 1716.93  109.28
   7   7 -15  668.58   40.94
   7  -7 -15  591.14   48.99
   7   7 -15  635.37   40.82
  -7   7  15  551.12   40.83
   7  -7 -15  602.57   41.24
   7  -7 -16 2153.97  144.99
   7   7 -16 2087.61  135.10
   7  -7 -16 2187.72  135.69
  -7   7  16 1984.43  135.21
   7   7 -16 2210.79  135.20
   7  -7 -17  280.12   26.79
   7  -7 -17  236.38   17.94
   7   7 -17  251.00   17.67
  -7   7  17  234.94   17.70
   7  -7 -18   94.76   14.29
  -7   7  18   92.92    8.57
   7  -7 -18  112.70    9.12
   7  -7 -19    3.93    1.69
  -7   7  19    4.20    1.69
   7  -7 -20   13.82    5.43
   7  -7 -20   14.19    2.58
  -7   7  20    8.95    2.21
   7  -7 -21    3.35    1.68
  -7   7  21    3.35    1.56
   7   7 -21    4.07    1.81
   7   7 -22    6.56    2.05
   7   7 -22    9.25    2.31
  -7   7  22    4.95    1.59
   7   7 -23   14.12    2.59
   7   7 -23   10.61    2.44
   7   7 -24  152.90   11.82
   7   7 -24  161.64   12.14
   7   7 -25  100.88    8.43
   7   7 -25  113.37    8.77
   7   7 -26  732.46   48.99
   7   7 -26  779.89   49.23
   7   7 -27   61.73    5.17
   7   7 -27   58.22    5.14
   7   7 -28  314.99   20.91
  -7  -9 -20   72.46    5.11
  -7  -9 -19   82.56    6.00
  -7  -9 -17   -0.16    0.41
  -7  -9 -16  238.69   16.17
  -7   9 -15  109.63    8.00
  -7  -9 -15   83.30    7.35
   7   9  15  110.33    7.98
  -7  -9 -15   92.72    7.68
  -7   9 -14  153.96   11.45
  -7   9 -14  155.27   11.50
  -7  -9 -14  150.09   11.19
   7   9  14  148.55   11.30
  -7  -9 -13   49.84    5.04
  -7   9 -13   56.70    5.36
  -7   9 -13   54.84    5.29
   7   9  13   56.49    5.25
  -7   9 -12    7.20    1.84
  -7   9 -12   11.67    2.09
  -7  -9 -12    8.26    2.01
   7   9  12    9.84    2.11
  -7  -9 -11   48.26    4.92
  -7   9 -11   41.48    4.69
  -7   9 -11   43.74    4.70
  -7   9 -11   41.99    5.46
   7   9  11   53.14    4.93
  -7   9 -10   27.46    3.43
  -7   9 -10   25.37    3.32
  -7  -9 -10   21.41    3.37
   7   9  10   29.88    3.53
   7   9   9   40.98    7.53
  -7  -9  -9   26.98    3.92
  -7  -9  -9   33.91    4.13
  -7   9  -9   31.37    3.76
   7   9   9   36.32    4.00
  -7   9  -8   84.04    8.11
  -7  -9  -8   89.41   10.89
  -7  -9  -8   74.70    7.25
  -7   9  -8   87.58    7.25
   7   9   8  104.75   12.29
   7   9   8   79.59    7.11
  -7   9  -7   54.64    6.22
  -7  -9  -7   42.74    7.47
  -7  -9  -7   57.72    5.71
   7   9   7   49.25    8.70
  -7   9  -7   55.96    5.36
   7   9   7   58.88    5.44
  -7   9  -6 1599.83  104.88
   7   9   6 1727.84  110.87
  -7  -9  -6 1612.75  108.83
  -7  -9  -6 1558.67  104.16
  -7  -9  -6 1649.95  104.52
   7   9   6 1651.83  103.91
  -7  -9  -5  344.21   30.23
  -7  -9  -5  354.18   26.46
  -7   9  -5  395.58   27.36
  -7  -9  -5  367.43   26.82
   7   9   5  447.43   26.60
  -7   9  -4 2565.94  185.27
  -7   9  -4 2895.73  185.37
  -7  -9  -4 3019.03  184.83
  -7  -9  -4 2960.99  185.19
   7   9   4 3027.43  184.46
  -7   9  -3   39.33    4.84
  -7   9  -3   42.45    4.81
  -7  -9  -3   24.64    3.67
  -7  -9  -3   26.27    3.98
   7   9   3   27.16    3.49
   7   9   2 1795.03  122.84
  -7   9  -2 1753.80  117.35
  -7  -9  -2 1754.36  116.89
  -7  -9  -2 1891.95  117.50
   7   9   2 1914.07  116.68
  -7   9  -1    3.94    1.75
  -7   9  -1   10.59    2.68
  -7  -9  -1    3.73    1.74
   7   9   1    3.04    2.83
   7   9   1    5.20    1.52
  -7   9   0   70.21    6.91
  -7   9   0   87.07    7.51
   7   9   0   78.77    6.48
  -7  -9   0   73.40    6.70
   7   9  -1   95.78   12.45
  -7   9   1  104.69    9.29
  -7  -9   1  101.79    8.62
  -7   9   1  119.26    9.21
   7   9  -1  110.25    8.45
  -7   9   1  101.88    9.32
   7   9  -2  143.02   15.23
  -7   9   2  155.97   11.59
  -7   9   2  135.61   10.82
   7   9  -2  148.73   10.44
  -7   9   2  109.78   10.88
  -7   9   3  340.85   24.71
   7   9  -3  347.96   29.23
  -7   9   3  375.20   25.03
  -7   9   3  314.10   23.96
   7   9  -3  374.71   23.81
  -7   9   4    4.91    1.70
  -7   9   4    1.58    1.52
  -7   9   4    2.74    1.26
   7   9  -4    1.61    1.08
  -7   9   5   86.49    7.53
  -7   9   5   75.02    6.54
  -7   9   5   69.03    6.91
   7   9  -5   67.17    6.11
  -7  -9   6 1035.21   66.15
  -7   9   6 1079.89   67.24
  -7   9   6  950.47   66.75
  -7   9   7    3.90    2.13
  -7   9   7    5.72    2.04
  -7   9   8 2550.64  162.82
   7   9  -9  300.91   20.15
  -7   9   9  274.72   20.86
   7   9 -10 1575.45  101.47
  -7   9  10 1603.86  102.45
   7   9 -11   16.78    2.60
  -7   9  11   11.06    2.76
   7   9 -12   71.34    6.70
   7   9 -12   79.91    6.73
  -7   9  12   74.10    7.30
   7   9 -13   16.13    2.81
  -7   9  13   19.47    3.14
   7   9 -13   16.28    2.70
   7  -9 -14  440.08   31.35
   7   9 -14  468.14   30.82
   7   9 -14  425.76   30.74
  -7   9  14  494.83   31.62
   7   9 -15    6.50    1.96
   7  -9 -15    6.34    2.15
   7  -9 -15   13.75    5.71
   7   9 -15    8.56    2.03
  -7   9  15    9.26    2.42
   7   9 -16  304.76   21.43
  -7   9  16  330.28   22.09
   7   9 -16  289.41   21.43
   7  -9 -16  306.08   21.95
   7   9 -17    4.06    1.70
   7  -9 -17    5.40    1.97
  -7   9  17    3.84    1.71
   7  -9 -18   48.64    5.58
   7   9 -18   66.27    5.78
  -7   9  18   58.54    5.84
  -7   9  19  216.55   15.57
   7  -9 -19  205.84   15.48
   7   9 -19  213.51   15.39
   7   9 -20  965.35   61.44
   7  -9 -20  969.99   61.49
  -7   9  20  907.21   61.39
   7   9 -21   40.86    4.46
   7   9 -21   46.86    4.40
   7  -9 -21   42.29    4.26
  -7   9  21   36.91    4.13
   7   9 -22  622.67   41.30
   7   9 -22  627.19   41.56
  -7   9  22  642.31   41.20
   7   9 -23  411.04   27.25
   7   9 -23  408.23   27.44
   7   9 -24   27.40    2.80
   7   9 -24   21.18    2.68
   7   9 -25    5.39    1.14
   7   9 -25    2.83    0.98
  -7 -11 -16    2.79    0.66
  -7 -11 -15    4.02    0.78
  -7 -11 -15    4.12    0.90
  -7 -11 -14    3.24    0.93
  -7 -11 -14    3.87    0.92
  -7 -11 -13  249.15   17.41
  -7 -11 -13  241.12   17.36
   7  11  13  298.82   17.71
  -7 -11 -12   55.87    4.91
   7  11  12   63.20    5.09
  -7 -11 -11  370.53   26.43
   7  11  11  430.24   26.61
   7  11  10  547.59   35.93
   7  11   9 1024.91   65.93
  -7 -11  -8  336.88   23.79
   7  11   8  358.77   23.63
  -7 -11  -7   73.63    6.48
   7  11   7   69.36    6.08
  -7 -11  -6   17.55    2.70
  -7 -11  -6   19.52    3.01
   7  11   6   19.46    2.65
  -7 -11  -5    3.30    1.43
  -7 -11  -5    2.17    1.61
   7  11   5    2.05    1.03
  -7  11  -4   20.67    3.36
   7  11   4   13.46    2.24
  -7 -11  -4   18.88    2.98
  -7  11  -3   12.81    2.74
  -7 -11  -3    8.21    1.87
  -7 -11  -3   12.01    2.54
  -7  11  -2    6.55    2.00
  -7 -11  -2    2.23    1.19
  -7 -11  -2    4.24    1.78
   7  11   2   -0.34    0.99
  -7 -11  -1  395.11   27.24
  -7  11  -1  362.65   27.12
  -7 -11  -1  418.78   26.76
   7  11   1  403.72   26.56
  -7  11  -1  373.18   27.70
  -7  11   0  196.20   16.07
  -7 -11   0  224.87   15.79
   7  11   0  225.90   15.69
  -7 -11   0  236.02   16.51
  -7  11   1 1768.54  117.99
  -7 -11   1 1878.25  118.23
   7  11  -1 1876.28  117.45
  -7 -11   2  695.57   46.58
  -7  11   2  665.47   46.29
   7  11  -2  737.46   45.91
  -7  11   3 1620.22  115.31
  -7 -11   3 1816.45  115.80
  -7  11   4  443.52   28.74
  -7 -11   4  405.58   28.23
  -7  11   4  395.08   28.91
  -7  11   5  969.21   59.25
  -7 -11   5  875.58   58.52
  -7  11   5  860.75   59.41
  -7  11   6   17.75    3.17
   7  11  -6    9.69    2.05
  -7  11   6   13.41    2.65
  -7  11   7   68.51    6.41
   7  11  -7   56.81    5.55
  -7  11   7   65.54    6.50
   7  11  -8   72.12    6.10
  -7  11   8   73.52    6.75
  -7  11   8   55.77    6.46
  -7  11   9   34.84    4.17
   7  11  -9   33.49    3.73
   7  11  -9   28.94    3.15
  -7  11   9   30.50    4.18
  -7  11  10    1.88    1.47
   7 -11 -10    1.98    1.54
   7  11 -10    4.74    1.28
   7  11 -10    2.91    1.48
  -7  11  10    1.03    1.54
  -7  11  11   11.07    2.42
   7  11 -11    6.70    1.50
   7  11 -11    6.14    1.64
  -7  11  11    6.50    2.15
  -7  11  12  149.23   11.11
   7  11 -12  128.80   10.02
  -7  11  12  145.47   11.28
  -7  11  13 1186.65   73.20
   7  11 -13 1082.32   72.16
  -7  11  13 1150.71   73.37
  -7  11  14  578.37   36.36
   7  11 -14  520.31   35.40
   7 -11 -14  532.77   36.34
  -7  11  14  554.19   36.47
  -7  11  15 1495.07   90.29
   7  11 -15 1350.82   89.41
   7 -11 -15 1373.35   90.21
  -7  11  15 1434.68   90.41
  -7  11  16  287.30   19.20
   7  11 -16  266.41   18.49
   7 -11 -16  255.78   19.03
  -7  11  16  294.89   19.38
  -7  11  17  524.97   31.33
   7 -11 -17  452.91   31.10
   7  11 -17  439.89   30.57
  -7  11  17  475.20   31.29
   7 -11 -18   50.11    4.41
  -7  11  18   47.18    4.39
   7 -11 -18   44.95    4.08
   7  11 -18   40.45    3.89
  -7  11  18   50.87    4.52
   7  11 -19    8.17    1.24
   7 -11 -19   10.14    1.69
   7  11 -19    7.81    1.53
   7  11 -20   15.10    1.73
   7  11 -20   15.69    2.06
   7  11 -21  339.51   22.37
   7  11 -22    5.13    0.97
  -7 -13  -9    9.91    1.32
  -7 -13  -8   16.96    1.91
  -7 -13  -7  138.25    9.55
  -7 -13  -7  149.37    9.98
  -7 -13  -6  169.38   10.62
  -7 -13  -6  139.42   10.02
   7  13   5   -0.12    0.31
  -7 -13  -5 1251.39   14.12
   7  13   4  103.80    7.30
  -7 -13  -4  105.12    7.83
   7  13   3 1029.98   65.40
   7 -13   3  972.65   65.74
  -7 -13  -3 1104.12   66.06
   7  13   2  229.79   15.16
  -7 -13  -2  220.12   15.62
   7 -13   2  229.88   15.66
   7  13   1  188.15   12.89
  -7 -13  -1  192.72   13.37
  -7 -13   0    7.63    1.61
   7  13   0    8.52    1.34
   7 -13  -1  134.72   10.43
   7  13  -1  140.24    9.87
  -7 -13   1  146.03   10.24
  -7 -13   2   24.46    2.85
   7 -13  -2   22.47    3.14
   7 -13  -3  433.23   29.55
   7  13  -3  460.44   28.96
  -7 -13   3  443.76   28.98
  -7  13   3  421.17   29.80
   7  13  -4    4.29    1.19
   7 -13  -4    5.70    1.71
   7 -13  -5  140.01   10.62
   7  13  -5  141.28   10.00
   7 -13  -6  135.33    9.90
   7  13  -6  124.75    9.22
   7  13  -7 1234.29   79.87
   7 -13  -7 1235.20   80.48
  -7  13   7 1315.36   80.80
   7 -13  -8  158.39   11.19
  -7  13   8  157.60   11.38
   7  13  -8  141.52   10.52
   7  13  -9 2327.56  150.72
   7 -13  -9 2414.26  151.32
  -7  13   9 2453.83  151.52
  -7  13  10   26.89    3.21
   7 -13 -10   29.82    3.21
   7 -13 -11  257.46   18.34
  -7  13  11  284.33   18.60
   7 -13 -12    3.97    1.17
   7 -13 -13   39.99    3.60
   7 -13 -14   94.54    6.91
   7 -13 -15   56.98    4.60
   7  13 -15   63.01    4.58
  -8   0 -26   33.00    2.90
  -8   0 -25    1.42    1.29
  -8   0 -24  411.21   27.52
  -8   0 -23    4.19    1.60
  -8   0 -22  333.34   23.35
  -8   0 -21    3.07    2.08
  -8   0 -20  534.21   36.63
  -8   0 -19    0.60    2.00
  -8   0 -18  208.92   17.68
  -8   0 -18  228.22   17.77
  -8   0 -18  253.39   16.56
  -8   0 -17    0.64    2.06
  -8   0 -17    2.41    2.82
  -8   0 -17   -0.62    2.18
  -8   0 -17    4.68    1.47
  -8   0 -16 1426.65   90.73
  -8   0 -16 1365.79   92.31
  -8   0 -16 1442.03   92.32
  -8   0 -16 1451.19  101.92
  -8   0 -15    2.33    4.30
  -8   0 -15    7.93    2.63
  -8   0 -15    3.13    1.88
  -8   0 -15    1.68    1.26
  -8   0 -14  208.32   16.22
  -8   0 -14  194.87   15.60
  -8   0 -14  216.68   16.25
  -8   0 -14  230.45   23.68
  -8   0 -14  210.80   14.87
  -8   0 -13    1.43    1.48
  -8   0 -13    1.72    1.34
  -8   0 -13    3.37    1.61
  -8   0 -13    0.95    0.92
  -8   0 -13   -2.14    4.34
  -8   0 -12  758.17   52.20
  -8   0 -12  760.76   51.65
  -8   0 -12  772.64   50.97
  -8   0 -12  806.60   51.69
  -8   0 -12  860.67   52.48
  -8   0 -12  758.20   59.32
  -8   0 -11    1.00    1.55
  -8   0 -11    0.81    1.20
  -8   0 -11    3.15    1.42
  -8   0 -11   -0.29    0.93
  -8   0 -11   -1.89    3.49
  -8   0 -10  113.37   10.87
  -8   0 -10  136.46   15.90
  -8   0 -10  147.90   10.91
  -8   0 -10  135.33   10.31
  -8   0  -9    1.33    1.11
  -8   0  -9    3.41    1.62
  -8   0  -8 1227.39   78.98
  -8   0  -8 1261.45   85.79
  -8   0  -7    1.93    1.00
  -8   0  -7   -1.37    2.54
  -8   0  -6 5400.49  345.68
  -8   0  -5    4.77    3.43
  -8   0  -4 1131.47   77.06
  -8   0  -3    1.10    2.56
  -8   0  -2 2358.67  153.96
  -8   0  -1   -1.09    2.54
  -8   0   0  190.32   17.17
  -8   0   1    3.13    3.00
   8   0  -2    3.37    1.85
  -8   0   2    2.96    1.95
   8   0  -3   -0.77    1.43
  -8   0   3    3.93    1.88
  -8   0   4  384.07   26.13
   8   0  -4  341.35   26.42
  -8   0   5    0.55    1.56
   8   0  -5    0.59    0.33
   8   0  -5    0.69    1.41
   8   0  -6   29.76    2.59
  -8   0   6   34.85    4.28
   8   0  -7    0.99    0.62
  -8   0   7    3.71    1.70
   8   0  -8 1759.17  113.56
  -8   0   8 1856.18  115.29
   8   0  -9    1.64    1.06
  -8   0   9    2.34    1.61
  -8   0  10 1100.00   71.42
   8   0 -10 1072.08   70.08
  -8   0  11   -0.70    1.53
   8   0 -11   -0.47    1.23
   8   0 -12  714.18   47.24
  -8   0  12  691.27   48.33
  -8   0  13    0.85    1.73
   8   0 -13   -0.63    1.28
   8   0 -14 1880.25  114.02
  -8   0  14 1761.88  113.73
   8   0 -14 1609.10  112.19
  -8   0  15   -1.03    1.71
   8   0 -15    1.63    1.51
   8   0 -15    4.10    2.68
  -8   0  16  127.26   13.43
   8   0 -16  156.25   14.38
   8   0 -16  141.54   10.54
  -8   0  17   -1.22    1.75
   8   0 -17    1.22    2.02
   8   0 -17    0.34    1.02
   8   0 -18  142.78   10.58
   8   0 -18  127.42   14.13
  -8   0  18  125.72   13.98
   8   0 -19    1.43    2.05
   8   0 -19   -0.39    1.11
  -8   0  19    1.42    2.04
   8   0 -20 1601.80  100.11
   8   0 -20 1551.42  106.05
  -8   0  20 1425.37  105.34
  -8   0  21    1.61    3.26
   8   0 -21    1.28    1.22
   8   0 -22 2337.89  145.87
  -8   0  22 2108.72  151.95
  -8   0  23    1.76    2.92
   8   0 -23    3.68    1.70
   8   0 -23   -1.87    3.10
  -8   0  24  540.54   46.30
   8   0 -24  624.70   40.50
   8   0 -24  592.79   47.43
  -8   0  25   -3.66    5.01
   8   0 -25    0.47    1.78
   8   0 -25   -1.97    3.64
   8   0 -26  400.80   27.65
   8   0 -27   -0.89    1.69
   8   0 -28   82.48    7.31
   8   0 -29    3.34    1.77
   8   0 -30  215.36   15.54
   8   0 -31   -0.33    1.16
   8   0 -32  529.53   34.69
  -8  -2 -25    0.35    0.89
  -8   2 -25    3.17    1.19
  -8  -2 -24   72.25    5.92
  -8   2 -24   75.79    6.24
  -8  -2 -23    1.24    1.50
  -8   2 -23    1.86    1.72
  -8  -2 -22    4.10    1.78
  -8   2 -22    9.45    2.52
  -8  -2 -21   14.28    2.01
  -8  -2 -21   15.52    2.91
  -8   2 -21    8.91    2.80
  -8  -2 -20  116.35    9.19
  -8  -2 -20  108.43    8.14
  -8   2 -19  176.36   13.25
  -8  -2 -19  164.91   11.40
  -8  -2 -18   10.53    2.88
  -8   2 -18    4.11    2.66
  -8  -2 -18   11.01    2.20
  -8  -2 -18   10.00    2.77
  -8   2 -17  491.00   34.06
  -8  -2 -17  469.63   34.29
  -8   2 -17  515.01   35.31
  -8  -2 -17  483.35   34.61
  -8   2 -17  507.25   34.23
  -8  -2 -17  527.27   33.58
  -8  -2 -16  413.83   25.32
  -8  -2 -16  415.97   26.58
  -8  -2 -16  371.99   26.06
  -8   2 -16  334.60   25.40
  -8   2 -16  328.86   26.32
  -8   2 -16  359.73   25.62
  -8  -2 -16  364.54   34.50
  -8   2 -16  266.14   30.46
  -8  -2 -15  428.59   27.78
  -8  -2 -15  385.36   28.42
  -8   2 -15  429.15   29.50
  -8   2 -15  381.04   27.96
  -8  -2 -15  398.22   28.56
  -8  -2 -15  442.10   29.03
  -8   2 -15  411.14   28.30
  -8   2 -15  390.09   34.67
  -8  -2 -15  343.38   35.46
  -8  -2 -14   93.72   13.56
  -8   2 -14   50.66    9.77
  -8  -2 -14   73.30    7.05
  -8  -2 -14   56.64    6.47
  -8   2 -14   62.06    7.13
  -8  -2 -14   64.90    6.58
  -8   2 -14   55.89    6.01
  -8   2 -14   52.32    5.98
  -8  -2 -14   78.33    6.33
  -8  -2 -14   67.99    5.46
  -8  -2 -13  303.42   27.60
  -8   2 -13  261.29   24.94
  -8  -2 -13  249.58   19.30
  -8   2 -13  270.07   20.21
  -8  -2 -13  259.95   19.34
  -8   2 -13  253.06   18.94
  -8  -2 -13  275.53   19.77
  -8   2 -13  271.53   19.23
  -8  -2 -13  259.77   18.72
  -8  -2 -13  274.25   18.17
  -8   2 -12    4.45    2.33
  -8   2 -12   -1.69    3.16
  -8  -2 -12   11.13    2.44
  -8   2 -12    5.05    1.65
  -8  -2 -12   14.85    2.87
  -8   2 -12    4.01    1.58
  -8   2 -12    3.17    1.42
  -8  -2 -12   10.21    1.66
  -8  -2 -12   13.11    2.57
  -8  -2 -12   24.67    2.91
  -8  -2 -12    4.18    3.89
  -8  -2 -11   79.48    6.79
  -8   2 -11  102.73    7.86
  -8  -2 -11   76.22    7.55
  -8   2 -11   95.27    8.55
  -8  -2 -11   78.75    7.45
  -8  -2 -11   86.18    7.28
  -8  -2 -11   82.40    7.82
  -8   2 -11   96.16    6.88
  -8   2 -11   84.50    7.25
  -8  -2 -11   78.97   12.42
  -8   2 -11   82.67   11.52
  -8  -2 -10  105.84    8.29
  -8  -2 -10  109.84    8.11
  -8   2 -10   74.43    6.85
  -8  -2 -10  101.01    7.72
  -8   2 -10   96.01    7.58
  -8  -2 -10  100.93    7.41
  -8   2 -10   88.46   11.65
  -8   2 -10   66.42    7.94
  -8   2  -9 1347.03   80.54
  -8  -2  -9 1319.27   88.14
  -8  -2  -9 1099.21   80.65
  -8   2  -9 1339.52   81.69
  -8  -2  -9 1260.04   80.74
  -8   2  -9 1256.03   86.07
  -8   2  -9 1243.20   79.92
  -8   2  -8  193.93   14.68
  -8  -2  -8  259.76   19.31
  -8  -2  -8  248.77   21.47
  -8   2  -8  199.22   18.96
  -8   2  -7  679.34   44.13
  -8  -2  -7  622.80   49.54
  -8   2  -7  694.36   48.87
  -8  -2  -7  706.07   47.94
  -8   2  -6  292.20   20.23
  -8  -2  -6  350.85   23.85
  -8   2  -6  283.90   24.00
  -8  -2  -6  298.04   25.35
  -8   2  -5  570.16   34.68
  -8  -2  -5  511.15   39.57
  -8   2  -5  493.50   38.34
  -8  -2  -5  573.27   37.61
  -8  -2  -5  496.19   34.58
  -8  -2  -4  158.69   11.54
  -8   2  -4  173.08   11.56
  -8  -2  -4  178.51   15.97
  -8   2  -4  139.25   14.27
  -8  -2  -4  175.49   13.80
  -8  -2  -3    2.51    0.98
  -8   2  -3    0.38    0.76
  -8  -2  -3    3.90    1.78
  -8   2  -3    0.93    1.72
  -8  -2  -3    1.09    2.22
  -8  -2  -2   16.02    1.98
  -8  -2  -2   20.49    3.02
  -8  -2  -2   16.96    4.50
  -8   2  -2   12.88    3.79
  -8  -2  -1    5.19    3.52
  -8   2  -1    8.37    3.35
  -8  -2   0  489.45   35.26
  -8   2   0  448.97   34.33
  -8  -2   0  472.56   31.11
  -8  -2   1 1191.12   85.59
  -8   2   1 1216.72   85.57
  -8  -2   1 1317.10   81.60
  -8  -2   2 1517.25  102.74
  -8   2   2 1386.13  102.45
  -8  -2   2 1548.44   98.22
   8  -2  -2 1648.11  102.42
   8   2  -2 1772.12  102.27
  -8  -2   3 1488.78  101.23
  -8   2   3 1597.66  101.78
   8  -2  -3 1615.64  101.91
   8   2  -3 1544.98  101.56
   8   2  -4 2254.25  147.82
  -8  -2   4 2260.85  147.26
  -8   2   4 2319.54  147.73
   8  -2  -4 2367.20  147.94
   8   2  -5  499.81   35.32
  -8  -2   5  556.06   36.69
  -8   2   5  601.51   37.34
  -8   2   6   45.20    5.28
   8   2  -6   41.35    4.00
  -8  -2   6   39.75    4.88
  -8   2   7  145.18   12.59
  -8  -2   7  166.36   12.50
  -8   2   8    6.13    2.11
  -8  -2   8    3.19    1.67
  -8  -2   9  562.22   37.61
  -8   2   9  535.71   37.86
  -8  -2  10  189.40   13.76
  -8   2  10  142.79   13.37
  -8  -2  11  160.84   12.80
  -8   2  11  138.14   12.85
   8  -2 -11  143.71   12.37
  -8   2  12 1545.27  104.78
  -8  -2  12 1702.05  104.45
   8  -2 -12 1548.64  104.02
  -8   2  13  582.78   42.52
  -8  -2  13  602.27   42.01
   8   2 -13  623.91   42.56
   8  -2 -13  617.70   41.89
   8  -2 -13  569.74   41.68
   8  -2 -14 1443.33  106.95
  -8  -2  14 1777.97  108.02
   8   2 -14 1702.68  108.34
   8  -2 -14 1685.57  107.66
  -8   2  14 1627.77  108.39
  -8   2  15 1813.01  124.99
  -8  -2  15 1981.39  124.75
   8  -2 -15 1891.16  124.26
   8  -2 -15 1908.54  124.31
   8   2 -15 1889.78  125.02
   8   2 -16 2680.76  171.75
  -8  -2  16 2886.71  176.32
   8   2 -16 2891.67  176.85
   8  -2 -16 2463.52  175.27
   8   2 -16 2733.11  171.31
   8  -2 -16 2723.39  171.56
   8  -2 -16 2731.65  175.80
  -8   2  16 2574.28  176.51
  -8  -2  17  642.12   43.07
   8  -2 -17  579.14   42.44
   8   2 -17  635.60   43.70
   8  -2 -17  617.66   42.77
   8   2 -17  582.24   38.37
   8  -2 -17  545.70   38.03
   8   2 -17  596.78   37.90
  -8   2  17  493.73   42.63
   8   2 -18  212.58   14.62
   8   2 -18  156.79   18.23
   8   2 -18  220.09   15.15
   8  -2 -18  194.77   18.66
  -8  -2  18  226.01   19.47
   8  -2 -18  217.83   19.15
   8  -2 -18  205.47   14.81
  -8   2  18  193.63   19.48
  -8  -2  19   85.93   10.24
  -8   2  19   52.69    9.25
   8   2 -19   75.58    6.19
   8   2 -19   73.59   10.03
   8  -2 -19   43.86    7.85
   8   2 -19   63.57    5.67
   8  -2 -19   55.28    5.52
   8   2 -19   70.08    5.65
   8  -2 -19   52.08    8.43
  -8   2  20  118.85   14.78
   8   2 -20  123.89    9.60
   8  -2 -20  133.76   10.01
   8   2 -20  136.28   10.27
   8   2 -20  114.74    9.72
  -8  -2  20  123.56   13.99
   8  -2 -20  143.18   14.75
  -8  -2  21  541.98   44.54
  -8   2  21  547.41   45.65
   8  -2 -21  540.36   44.56
   8   2 -21  587.90   39.07
   8  -2 -21  628.06   39.48
   8   2 -21  600.33   39.35
   8   2 -21  598.81   39.67
  -8   2  22  369.28   34.85
   8   2 -22  420.69   28.65
   8  -2 -22  439.52   29.01
   8   2 -22  411.44   28.86
   8   2 -22  449.74   29.35
  -8  -2  22  436.41   34.97
  -8  -2  23   29.77    7.27
  -8   2  23   26.86    7.30
   8   2 -23   50.45    5.16
   8  -2 -23   52.94    5.00
   8   2 -23   45.92    4.90
   8   2 -23   44.21    4.60
   8   2 -23   40.59    9.06
   8  -2 -23   48.01    8.62
   8   2 -24   69.78    5.75
  -8  -2  24   57.17    9.72
  -8   2  24   35.04    8.39
   8   2 -24   60.90    6.05
   8   2 -24   57.32    5.78
   8  -2 -24   58.97    5.79
   8   2 -24   55.54   10.11
   8  -2 -24   45.78    8.77
  -8  -2  25  227.09   23.59
   8   2 -25  251.62   17.86
   8   2 -25  289.92   18.75
   8   2 -25  251.58   18.24
  -8   2  25  180.79   23.11
   8  -2 -25  266.15   24.88
   8  -2 -25  251.17   18.15
   8   2 -25  271.38   25.99
   8  -2 -26  960.48   61.98
   8   2 -26  985.55   62.36
   8   2 -26  921.54   61.61
   8   2 -27 1164.28   78.52
   8  -2 -27 1218.57   78.94
   8   2 -27 1324.17   79.42
   8  -2 -28  395.95   25.06
   8   2 -28  364.04   25.17
   8   2 -28  340.83   24.28
   8  -2 -29  648.18   44.94
   8   2 -29  735.93   45.47
   8  -2 -30  151.71   11.61
   8   2 -30  167.06   11.96
   8  -2 -31   29.25    3.25
   8   2 -31   32.62    3.47
   8  -2 -32   76.20    6.18
   8   2 -32   86.94    6.37
   8   4  23  655.75   38.20
  -8   4 -23  632.74   38.21
  -8  -4 -22   11.32    1.82
  -8   4 -22    7.95    1.97
  -8  -4 -22   10.83    1.59
  -8  -4 -21  153.23   11.56
  -8   4 -21  153.97   12.05
  -8  -4 -21  170.44   11.46
  -8  -4 -20   23.11    3.14
  -8   4 -20   31.58    3.90
  -8  -4 -20   25.10    2.99
  -8   4 -19  104.11    8.97
  -8  -4 -19   86.65    7.89
  -8  -4 -19  103.53    7.96
  -8  -4 -18   54.08    5.15
  -8  -4 -18   48.52    5.14
  -8   4 -18   44.46    5.66
  -8  -4 -17   81.51    7.90
  -8   4 -17   97.47    9.08
  -8  -4 -17   99.30    7.98
  -8  -4 -16   -1.95    1.76
  -8  -4 -16    2.35    1.11
  -8  -4 -16    0.97    1.65
  -8  -4 -16    2.64    1.71
  -8  -4 -15    3.18    1.54
  -8  -4 -15    5.01    2.18
  -8   4 -15   13.36    3.36
  -8  -4 -15    8.25    2.30
  -8   4 -15    9.67    2.48
  -8   4 -15    5.66    2.02
  -8   4 -15    6.32    1.79
  -8  -4 -15    5.42    1.98
  -8  -4 -15    3.62    1.48
  -8  -4 -14    1.91    3.53
  -8   4 -14    6.01    3.51
  -8  -4 -14   -0.50    2.17
  -8  -4 -14    5.53    2.29
  -8   4 -14   -0.71    2.80
  -8   4 -14   10.77    2.97
  -8   4 -14    2.47    1.69
  -8  -4 -14    1.48    2.04
  -8   4 -14   -1.16    1.90
  -8  -4 -14    4.59    1.86
  -8   4 -14    4.11    1.65
  -8  -4 -14    2.50    1.36
  -8  -4 -13  249.44   18.12
  -8  -4 -13  241.11   18.64
  -8   4 -13  272.61   19.92
  -8  -4 -13  247.97   18.90
  -8   4 -13  300.53   19.97
  -8   4 -13  254.89   18.64
  -8  -4 -13  265.24   18.80
  -8   4 -13  259.76   18.17
  -8  -4 -13  260.58   18.58
  -8   4 -13  255.35   18.49
  -8  -4 -13  229.56   24.13
  -8   4 -13  251.84   22.89
  -8  -4 -12   25.25    6.47
  -8   4 -12   13.81    4.49
  -8   4 -12   24.52    3.98
  -8  -4 -12   28.69    3.86
  -8  -4 -12   22.37    3.54
  -8   4 -12   21.57    4.17
  -8   4 -12   16.22    2.85
  -8  -4 -12   28.39    6.27
  -8   4 -12   20.33    2.91
  -8   4 -12   20.48    3.06
  -8  -4 -12   29.44    3.79
  -8  -4 -12   23.44    3.11
  -8  -4 -11  115.85    9.53
  -8   4 -11  127.50   10.55
  -8   4 -11  113.43    9.30
  -8  -4 -11  109.02    9.34
  -8  -4 -11  117.27    9.70
  -8   4 -11  118.38    9.92
  -8   4 -11  104.81   12.31
  -8  -4 -11  112.55    9.10
  -8  -4 -11  116.91   13.61
  -8  -4 -11  119.31   14.49
  -8   4 -11  111.56    9.07
  -8   4 -11  106.87    8.80
  -8  -4 -10   37.13    4.45
  -8  -4 -10   31.86    4.21
  -8   4 -10   45.62    5.34
  -8   4 -10   32.65    4.08
  -8  -4 -10   38.96    4.40
  -8  -4 -10   31.67    6.45
  -8   4 -10   42.80    4.16
  -8  -4 -10   35.73    4.06
  -8   4 -10   40.79    4.65
  -8  -4 -10   34.48    7.30
  -8   4 -10   35.51    3.86
  -8   4 -10   38.24    6.62
  -8  -4  -9  118.95    9.53
  -8   4  -9  113.57   10.12
  -8  -4  -9  128.61   14.30
  -8   4  -9  131.84    9.78
  -8   4  -9  123.37    9.35
  -8  -4  -9  117.13   12.86
  -8  -4  -9  126.85    9.55
  -8   4  -9  104.10    8.77
  -8   4  -9  119.93   12.39
  -8   4  -9  108.17    8.94
  -8  -4  -9  114.77    9.27
  -8  -4  -8   51.89    5.50
  -8   4  -8   66.96    6.43
  -8   4  -8   58.00    5.58
  -8   4  -8   57.90    5.45
  -8  -4  -8   59.72    8.26
  -8   4  -8   68.85    5.45
  -8  -4  -8   55.31    5.52
  -8  -4  -8   57.62    8.90
  -8   4  -8   63.29    8.06
  -8   4  -7  118.84    8.65
  -8  -4  -7  119.98   12.16
  -8  -4  -7  104.16   12.29
  -8   4  -7   89.48   10.66
  -8   4  -7  104.50    8.63
  -8  -4  -7  113.81    8.88
  -8  -4  -6    1.90    1.23
  -8  -4  -6    2.92    2.13
  -8  -4  -6    1.48    1.18
  -8   4  -6   -0.92    1.53
  -8  -4  -6   -1.24    2.29
  -8  -4  -5 1337.67   86.82
  -8   4  -5 1376.71   89.96
  -8  -4  -5 1240.27   90.87
  -8  -4  -5 1522.53   90.57
  -8  -4  -4   40.01    3.84
  -8  -4  -4   23.96    5.24
  -8  -4  -4   34.13    5.20
  -8   4  -3 1368.29   84.67
  -8  -4  -3 1253.05   88.48
  -8   4  -3 1295.54   87.45
  -8  -4  -3 1410.59   87.62
  -8  -4  -3 1295.40   84.88
  -8  -4  -2  269.24   16.56
  -8  -4  -2  299.11   20.56
  -8   4  -2  192.50   18.07
  -8   4  -2  252.61   16.21
  -8  -4  -2  304.26   19.12
  -8   4  -2  202.32   16.53
  -8   4  -2  224.15   16.49
  -8  -4  -1  840.69   60.17
  -8   4  -1  863.71   59.42
  -8   4  -1  868.79   57.32
  -8   4  -1  928.63   57.13
  -8   4   0   11.24    1.82
   8  -4   0   12.98    3.04
   8   4   0   22.40    3.80
  -8   4   0   11.69    2.11
  -8  -4   0   18.68    4.00
  -8   4   0   14.50    3.18
   8  -4  -1  182.91   14.61
  -8  -4   1  181.27   15.26
  -8   4   1  187.67   14.74
  -8   4   1  145.67   12.36
   8   4  -1  176.70   14.29
  -8   4   1  194.32   12.30
  -8  -4   2   12.96    3.83
  -8   4   2   22.52    4.18
   8   4  -2   11.65    2.77
  -8   4   2   21.94    2.34
   8   4  -2   16.55    3.37
  -8  -4   3  263.44   21.88
  -8   4   3  278.00   21.97
   8   4  -3  275.68   20.89
  -8   4   3  290.92   18.86
  -8  -4   4    4.18    2.78
  -8   4   4    3.52    2.32
   8   4  -4    9.82    2.35
  -8   4   4    4.45    1.14
  -8  -4   5 1180.31   77.06
  -8   4   5 1079.39   77.19
   8   4  -5 1143.07   76.96
  -8   4   5 1213.90   74.80
  -8   4   6    7.47    2.70
   8   4  -6   11.55    2.63
  -8   4   6    7.90    1.44
   8   4  -7 2853.54  185.87
  -8   4   7 2872.79  183.57
  -8  -4   7 3133.69  185.80
  -8   4   7 2865.94  186.21
  -8   4   8  196.42   16.46
  -8  -4   8  242.65   16.43
  -8   4   8  204.01   14.19
  -8  -4   9 8599.29  494.44
  -8   4   9 7679.09  494.81
  -8   4   9 7637.83  492.01
  -8   4  10    8.65    1.90
  -8  -4  10    6.09    2.05
  -8   4  10    3.81    2.12
  -8   4  10    5.51    1.26
  -8  -4  11 2003.80  119.73
   8   4 -11 1879.97  120.22
   8  -4 -11 1946.84  119.54
  -8   4  11 1795.33  120.19
  -8   4  11 1783.11  118.17
  -8   4  11 1804.32  116.99
  -8  -4  12  176.76   13.02
  -8   4  12  136.23   13.00
   8   4 -12  147.12   13.01
  -8   4  12  131.27   10.02
   8  -4 -12  141.20   12.29
   8   4 -13   11.29    3.11
  -8  -4  13   15.91    3.38
  -8   4  13    9.00    3.08
   8  -4 -13   13.98    3.17
  -8   4  13   12.21    1.87
   8  -4 -14    9.95    3.52
   8   4 -14   13.73    2.02
  -8   4  14    4.42    2.87
   8   4 -14   12.36    3.51
   8  -4 -14   17.79    3.74
  -8   4  14   17.34    2.18
  -8  -4  14   23.74    4.26
   8   4 -15  179.56   16.58
  -8  -4  15  214.27   16.61
  -8   4  15  180.66   16.97
   8  -4 -15  185.52   17.53
   8   4 -15  170.81   12.70
   8  -4 -15  190.61   15.89
   8   4 -15  179.38   12.91
   8  -4 -15  178.10   12.63
  -8   4  15  175.29   12.73
   8  -4 -16   20.91    4.29
   8   4 -16   16.68    2.51
  -8  -4  16   12.86    3.64
  -8   4  16   24.06    5.44
   8  -4 -16    9.93    3.90
   8   4 -16   19.78    2.73
  -8   4  16   27.05    2.88
   8  -4 -16   23.53    2.95
   8   4 -16   20.51    4.83
   8   4 -16   15.51    2.51
   8  -4 -16   22.17    2.56
  -8  -4  17   23.43    4.76
  -8   4  17   34.83    6.58
   8   4 -17    4.20    1.34
   8   4 -17    2.59    2.42
   8  -4 -17    5.36    2.53
   8  -4 -17    4.63    1.40
   8   4 -17    3.14    1.40
   8  -4 -17   18.24    4.72
  -8   4  17   11.44    1.86
  -8   4  18    1.56    2.24
   8  -4 -18   -1.61    2.99
  -8  -4  18    2.54    2.57
   8  -4 -18    0.31    0.91
   8   4 -18    0.73    1.36
  -8   4  18    2.95    1.12
   8   4 -18    7.78    1.84
   8  -4 -19 1590.06  105.42
   8   4 -19 1726.83  105.89
   8  -4 -19 1500.62  112.19
   8   4 -19 1725.39  105.94
  -8   4  19 1419.70  111.53
  -8  -4  19 1809.46  111.79
   8   4 -20    4.87    1.75
  -8   4  20    3.47    3.21
  -8  -4  20    5.75    3.37
   8  -4 -20    1.34    1.05
   8   4 -20    2.41    1.45
   8  -4 -20    1.80    2.58
   8   4 -21 2251.43  139.50
  -8  -4  21 2048.44  137.58
  -8   4  21 1792.06  138.08
   8  -4 -21 1899.60  138.86
   8   4 -21 2089.13  131.73
   8   4 -21 2147.58  131.77
   8   4 -21 2124.10  132.00
   8  -4 -21 2072.13  137.14
   8  -4 -21 1991.43  131.23
  -8   4  22   27.34    6.91
   8  -4 -22   32.01    3.48
   8   4 -22   17.84    3.04
   8  -4 -22   17.33    5.94
   8   4 -22   30.66    3.83
  -8  -4  22   19.99    5.60
   8   4 -22   27.55    3.51
   8   4 -22   12.32    5.06
   8  -4 -22   29.36    6.60
   8   4 -23 1914.72  116.98
  -8  -4  23 1820.55  122.93
  -8   4  23 1501.01  122.70
   8  -4 -23 1821.12  116.44
   8   4 -23 1859.48  116.88
   8   4 -23 1908.54  117.23
   8   4 -23 1712.48  123.64
   8  -4 -23 1745.77  122.36
   8  -4 -23 1692.22  124.47
   8  -4 -24    4.27    1.57
   8   4 -24    3.36    1.68
   8   4 -24    2.57    1.39
   8   4 -24    6.23    2.07
   8   4 -25   30.21    3.59
   8   4 -25   27.20    3.60
   8  -4 -25   33.36    3.52
   8   4 -25   29.11    3.91
   8  -4 -26   -0.70    1.78
   8   4 -26   -1.66    1.94
   8   4 -26    1.17    1.41
   8   4 -26   -0.45    1.28
   8  -4 -27  189.12   14.04
   8   4 -27  205.27   14.47
   8   4 -27  198.07   14.29
   8  -4 -28   52.58    5.09
   8   4 -28   58.31    5.44
   8   4 -28   62.91    5.35
   8  -4 -29   79.97    6.14
   8   4 -29   73.98    6.22
   8   4 -29   72.75    6.15
   8  -4 -30    9.47    1.51
   8   4 -30   10.15    1.66
   8   4 -30    8.43    1.53
  -8  -6 -22    0.81    0.61
  -8  -6 -21    5.95    1.20
   8   6  21    4.66    1.29
  -8  -6 -20   10.77    1.72
   8   6  20   10.83    1.96
  -8  -6 -19  103.19    8.05
   8   6  19  105.16    8.29
  -8  -6 -18    8.18    1.90
  -8   6 -17  153.44   11.28
  -8  -6 -17  149.29   10.66
  -8   6 -17  115.56   10.09
  -8  -6 -17  136.99    9.90
  -8   6 -16   11.32    2.15
  -8   6 -16   10.17    2.40
  -8  -6 -16    8.32    2.15
  -8  -6 -16    5.63    1.57
  -8   6 -15  177.95   14.12
  -8   6 -15  204.56   14.94
  -8   6 -15  195.61   14.52
  -8  -6 -15  197.20   14.03
  -8  -6 -14    1.58    2.66
  -8   6 -14    5.07    1.74
  -8   6 -14    9.79    2.89
  -8   6 -14    9.40    2.52
  -8   6 -14    6.42    2.06
  -8  -6 -14   14.25    2.38
  -8   6 -13  720.38   44.71
  -8  -6 -13  663.67   49.20
  -8   6 -13  619.37   43.07
  -8   6 -13  652.08   43.58
  -8  -6 -13  650.86   43.07
  -8   6 -13  632.53   43.00
  -8   6 -12   83.53    7.11
  -8   6 -12   95.52    8.43
  -8   6 -12   72.90    7.26
  -8  -6 -12   70.83    6.91
  -8  -6 -12   68.09   10.36
  -8   6 -11  237.07   16.94
  -8  -6 -11  219.27   21.14
  -8   6 -11  225.63   17.45
  -8  -6 -11  223.61   16.63
  -8   6 -11  226.57   16.43
  -8   6 -10   99.63    8.90
  -8   6 -10  124.80    9.57
  -8  -6 -10  106.82   13.00
  -8   6 -10  132.68   10.26
  -8  -6 -10  104.61    9.18
  -8   6  -9  979.58   65.39
  -8  -6  -9 1035.75   65.03
  -8   6  -9  995.10   64.96
  -8  -6  -9 1019.17   70.11
  -8   6  -9  965.03   64.48
  -8  -6  -9 1011.70   65.07
  -8   6  -8   17.58    3.03
  -8   6  -8   15.89    2.62
  -8  -6  -8   15.59    4.56
  -8  -6  -8   16.18    2.82
  -8   6  -8   23.67    2.80
  -8  -6  -8   14.52    2.77
  -8   6  -7   35.65    4.04
  -8  -6  -7   31.79    5.98
  -8  -6  -7   30.37    4.04
  -8   6  -7   35.91    4.34
  -8   6  -7   48.45    4.20
  -8  -6  -7   33.16    4.22
  -8  -6  -6  103.17    8.46
  -8  -6  -6  124.85    9.14
  -8   6  -6   99.63    8.73
  -8   6  -6  101.20    8.44
  -8  -6  -6  128.88   12.37
  -8   6  -6  110.38    8.31
  -8   6  -6   92.04    9.80
  -8  -6  -5   10.26    1.89
  -8   6  -5    6.10    1.65
  -8  -6  -5    5.32    2.37
  -8   6  -5   10.06    2.39
  -8  -6  -5    4.82    1.78
  -8  -6  -4  269.03   18.54
  -8  -6  -4  259.85   21.63
  -8  -6  -4  282.86   19.03
  -8  -6  -4  295.83   19.33
   8   6   4  215.70   20.04
  -8   6  -3    0.81    1.22
   8   6   3    0.68    0.99
  -8  -6  -3    2.65    1.10
  -8   6  -3    2.78    1.41
  -8  -6  -3    2.58    1.30
   8   6   2   12.93    2.76
  -8   6  -2   19.71    2.77
  -8  -6  -2   18.26    2.34
  -8  -6  -2   16.56    2.55
  -8   6  -2   16.97    2.94
   8   6   2   20.65    4.53
  -8   6  -2   14.77    2.35
  -8  -6  -2   19.02    2.84
  -8   6  -1   66.42    5.75
   8   6   1   79.44    9.03
  -8   6  -1   61.65    6.13
  -8  -6  -1   75.68    6.36
   8   6   1   65.95    5.38
  -8   6  -1   60.78    5.82
  -8   6   0  192.91   13.34
   8   6   0  180.89   16.45
   8   6   0  188.53   12.93
  -8   6   0  160.49   13.72
  -8   6   0  205.99   13.78
   8   6  -1  953.58   59.31
   8   6  -1  900.30   54.66
  -8   6   1  879.17   55.40
  -8   6   2 1791.42  124.38
   8   6  -2 2082.19  127.79
   8   6  -2 1936.45  123.28
  -8   6   2 2063.76  124.10
   8   6  -3  402.63   27.92
  -8   6   3  337.61   24.69
   8   6  -3  371.90   23.63
  -8   6   3  343.94   24.23
   8   6  -4 1218.77   82.13
   8   6  -4 1194.07   77.98
  -8   6   4 1293.63   78.80
   8   6  -5  801.89   53.04
  -8   6   5  747.09   49.36
   8   6  -6  136.47   12.86
  -8   6   6  132.54   10.02
  -8   6   7  431.14   28.77
  -8   6   8   10.18    1.86
  -8   6   9  377.63   25.48
  -8   6  10   88.07    9.04
  -8   6  10   96.86    7.69
  -8   6  11  377.67   28.02
   8   6 -11  369.21   27.08
  -8   6  11  376.85   25.62
  -8   6  11  386.09   27.66
   8   6 -12  481.02   31.87
  -8   6  12  470.06   34.24
  -8   6  12  478.44   32.08
   8   6 -12  485.91   33.97
   8   6 -13  334.76   21.96
  -8   6  13  305.98   24.33
  -8   6  13  308.25   22.02
   8   6 -14  926.96   58.91
  -8   6  14  960.15   62.16
  -8   6  14  865.41   59.00
   8  -6 -15 1421.11   97.12
   8   6 -15 1432.51   88.68
  -8   6  15 1317.75   88.70
   8  -6 -16 1343.67   83.67
   8   6 -16 1376.31   83.18
   8  -6 -16 1368.72   92.40
  -8   6  16 1155.73   82.94
   8   6 -17  183.60   14.74
   8   6 -17  211.90   15.06
   8  -6 -17  221.89   15.56
  -8   6  17  193.92   14.97
   8   6 -18  104.07    8.10
   8  -6 -18   92.47    8.17
  -8   6  18   77.34    7.59
   8  -6 -18  106.75   14.38
   8  -6 -19   86.58    7.78
   8   6 -19   83.97    7.70
   8  -6 -19   76.41   12.64
  -8   6  19   92.03    7.71
   8  -6 -20   51.00   10.33
   8  -6 -20   51.01    5.20
  -8   6  20   39.99    4.76
   8   6 -20   57.29    5.36
   8   6 -21  468.04   28.80
   8  -6 -21  386.84   36.25
   8  -6 -21  458.81   28.43
   8   6 -21  427.12   27.71
  -8   6  21  340.00   27.80
   8   6 -22  139.61   11.31
   8   6 -22  172.47   12.30
   8   6 -22  154.91   11.36
   8   6 -22  166.09   12.47
   8   6 -23   18.71    2.99
   8   6 -23   11.66    2.10
   8   6 -23   15.54    2.77
   8   6 -24   52.35    5.14
   8   6 -24   70.04    6.08
   8   6 -24   64.99    6.17
   8   6 -25  174.98   12.61
   8   6 -25  158.08   12.60
   8   6 -26  168.76   12.70
   8   6 -26  176.89   12.95
   8   6 -27  669.50   43.63
   8   6 -27  661.46   43.49
   8   6 -28  307.71   20.78
   8   6 -29  377.14   24.83
  -8  -8 -20  306.13   19.95
  -8  -8 -19   10.99    1.56
  -8  -8 -18   -0.23    1.06
  -8  -8 -17    0.55    0.59
  -8  -8 -16   21.54    2.56
  -8   8 -15    2.97    1.86
  -8   8 -15    3.03    1.44
  -8  -8 -15    0.30    1.16
  -8  -8 -15    1.05    1.54
   8   8  15    2.47    1.37
  -8  -8 -14   34.13    3.93
  -8   8 -14   30.26    4.03
  -8   8 -14   37.55    4.09
  -8  -8 -14   30.43    3.60
   8   8  14   36.16    3.94
  -8   8 -13   65.85    6.89
  -8   8 -13   65.25    6.61
  -8  -8 -13   94.33    7.09
   8   8  13   86.26    6.99
  -8   8 -12  586.14   38.94
  -8   8 -12  556.35   38.47
  -8  -8 -12  569.97   38.53
   8   8  12  585.98   38.51
  -8   8 -12  608.27   39.74
  -8   8 -11    2.46    1.97
  -8   8 -11    4.82    1.87
   8   8  11   -1.59    2.63
  -8   8 -11    7.03    1.84
  -8  -8 -11    0.88    1.26
   8   8  11   -0.40    1.24
  -8   8 -10  239.80   17.97
  -8  -8 -10  269.43   18.51
  -8   8 -10  249.22   18.43
   8   8  10  245.05   23.36
  -8   8 -10  232.61   18.97
   8   8  10  283.00   18.32
  -8  -8  -9    2.70    2.75
  -8   8  -9    4.15    1.84
  -8   8  -9    3.57    1.44
  -8  -8  -9    4.26    1.85
   8   8   9    2.76    1.44
  -8   8  -9    2.42    2.19
   8   8   9    4.80    2.96
  -8  -8  -8    5.53    1.82
  -8   8  -8    3.09    1.55
  -8  -8  -8    6.64    3.13
   8   8   8    4.76    2.96
  -8   8  -8    8.39    1.87
   8   8   8    6.96    1.82
  -8  -8  -7   10.93    2.43
  -8  -8  -7   14.31    4.07
   8   8   7    9.06    1.92
  -8   8  -7    9.15    1.87
  -8  -8  -6  296.23   24.56
  -8  -8  -6  284.51   20.58
   8   8   6  322.18   20.38
  -8   8  -6  270.38   20.92
  -8  -8  -6  262.85   20.59
  -8   8  -6  298.16   20.12
  -8   8  -5   17.36    3.31
  -8  -8  -5   19.40    4.69
  -8  -8  -5   23.71    3.33
  -8  -8  -5   24.44    3.63
   8   8   5   23.42    2.99
  -8  -8  -4  720.94   54.44
  -8  -8  -4  764.39   50.97
  -8  -8  -4  787.37   51.34
   8   8   4  826.35   50.64
  -8   8  -4  734.01   51.27
  -8   8  -3   34.86    4.84
   8   8   3   47.64    7.85
  -8  -8  -3   52.50    5.19
  -8  -8  -3   44.34    5.14
   8   8   3   61.02    4.97
   8   8   2 1771.86  116.37
  -8  -8  -2 1710.47  110.74
  -8  -8  -2 1712.74  111.16
  -8   8  -2 1620.61  110.99
   8   8   2 1835.52  110.40
  -8  -8  -1    2.60    1.11
  -8   8  -1    1.34    1.29
   8   8   1    1.39    2.57
  -8  -8  -1    4.67    1.68
  -8  -8  -1    1.41    1.51
   8   8   1    3.40    1.31
  -8   8   0    1.52    1.53
   8   8   0    5.07    1.32
  -8   8   0    2.57    1.48
   8   8   0    5.45    2.99
  -8  -8   0    4.50    1.47
  -8  -8   0    2.75    1.83
  -8   8   1    2.97    1.59
  -8   8   1    4.10    1.52
   8   8  -1    2.69    2.49
  -8  -8   1    1.78    1.11
  -8  -8   1    4.47    1.93
   8   8  -1    1.16    0.94
   8   8  -2  193.89   19.08
  -8  -8   2  216.07   15.59
   8   8  -2  221.54   14.80
  -8   8   2  212.29   15.81
  -8   8   2  196.75   15.20
   8   8  -3   39.60    7.12
  -8   8   3   43.06    4.80
  -8  -8   3   50.44    5.20
  -8   8   3   47.89    5.22
  -8   8   4  390.97   27.32
   8   8  -4  424.62   31.60
  -8  -8   4  367.30   26.46
  -8   8   4  390.09   26.37
   8   8  -4  396.15   25.90
  -8   8   4  388.96   26.96
   8   8  -5    1.32    2.19
  -8   8   5    1.71    1.17
  -8  -8   5    0.38    1.09
  -8   8   5   -0.47    1.40
  -8   8   6  149.83   11.34
  -8  -8   6  162.34   11.61
  -8   8   6  146.61   11.92
  -8   8   7    2.81    1.61
  -8   8   8 1351.73   87.40
  -8   8   9   35.70    4.33
  -8   8  10  813.75   53.72
   8   8 -11    4.68    1.66
  -8   8  11    9.81    2.40
   8   8 -12   36.40    4.14
   8   8 -12   36.13    4.16
  -8   8  12   40.55    4.65
   8   8 -13    1.20    1.20
   8   8 -13    1.24    1.33
   8   8 -14 1164.79   71.17
   8   8 -14 1045.52   71.02
  -8   8  14 1078.68   71.51
   8  -8 -15    3.81    2.09
   8  -8 -15    4.77    3.96
   8   8 -15    3.82    1.56
   8   8 -15    5.66    1.72
  -8   8  15    9.20    2.34
   8   8 -16  665.26   46.42
   8  -8 -16  763.53   57.15
   8   8 -16  714.17   46.52
   8  -8 -16  743.50   47.21
  -8   8  16  688.26   46.86
   8  -8 -17    4.78    3.44
   8   8 -17    5.35    1.72
   8  -8 -17    7.98    2.30
  -8   8  17    4.98    1.82
   8   8 -17    3.07    1.48
   8   8 -18   10.95    2.33
   8  -8 -18   12.28    2.72
  -8   8  18   12.49    2.60
   8   8 -19    3.47    1.70
   8  -8 -19    3.36    1.75
  -8   8  19    3.66    1.79
   8  -8 -20 1579.06   94.02
  -8   8  20 1357.38   93.58
   8  -8 -21    3.93    1.67
  -8   8  21    1.93    1.54
   8   8 -22 1740.80  111.61
   8   8 -23   14.05    2.53
   8   8 -24  153.99   11.03
   8   8 -24  139.65   11.03
   8   8 -25    4.05    1.48
   8   8 -25    3.99    1.27
   8   8 -26  107.76    8.47
   8   8 -26  121.23    8.54
   8   8 -27    0.97    0.74
  -8 -10 -17   66.84    4.89
  -8 -10 -16   44.67    2.40
  -8 -10 -16    0.11    0.31
  -8 -10 -15   94.36    6.54
   8  10  15   95.94    6.68
  -8 -10 -14   16.28    2.20
  -8 -10 -14   18.11    2.18
   8  10  14   21.35    2.45
  -8 -10 -13  191.19   14.05
  -8 -10 -13  189.85   13.99
   8  10  13  231.16   14.38
  -8 -10 -12   90.01    7.65
   8  10  12  110.32    7.94
  -8 -10 -11  344.31   24.56
   8  10  11  384.77   24.67
  -8 -10 -10   60.14    5.87
   8  10  10   73.08    5.97
   8  10   9  138.94   10.52
  -8  10  -8    3.34    1.74
   8  10   8    3.17    1.32
  -8  10  -7   13.69    2.90
  -8 -10  -7    8.39    2.13
   8  10   7   10.41    2.03
  -8 -10  -6    3.24    1.43
  -8  10  -6    3.46    2.03
  -8 -10  -6    5.51    1.91
   8  10   6    2.17    1.28
  -8  10  -5   21.33    3.84
  -8 -10  -5   26.57    3.36
  -8 -10  -5   17.07    3.14
   8  10   5   25.70    3.12
   8  10   4  207.10   22.04
  -8 -10  -4  238.21   17.71
  -8  10  -4  242.06   18.51
  -8 -10  -4  254.28   18.20
   8  10   4  271.88   17.68
  -8  10  -3    3.92    1.93
  -8 -10  -3    4.48    1.71
   8  10   3    6.31    3.21
  -8 -10  -3    6.41    1.98
   8  10   3    5.33    1.47
  -8  10  -2   65.84    6.42
  -8 -10  -2   47.43    5.30
   8  10   2   61.59    9.37
  -8 -10  -2   61.22    6.03
   8  10   2   58.95    5.32
  -8 -10  -1   34.64    3.88
   8  10   1   28.40    6.32
  -8 -10  -1   35.42    4.32
  -8  10  -1   28.11    4.16
   8  10   1   34.05    3.66
  -8  10   0    4.08    1.85
  -8 -10   0    6.10    1.66
   8  10   0    6.30    3.20
  -8 -10   0    2.97    1.71
   8  10   0    2.70    1.30
  -8 -10   1   66.43    6.44
  -8  10   1   79.79    6.91
  -8  10   1   72.70    6.61
   8  10  -1   59.95    5.63
  -8  10   1   61.13    6.80
  -8  10   2 1002.45   66.56
  -8 -10   2 1039.99   66.69
  -8  10   2 1124.36   67.25
   8  10  -2 1011.17   65.75
  -8  10   2  939.60   67.08
  -8  10   3  105.46    8.72
  -8  10   3  116.44    9.32
  -8  10   3  121.79    9.69
  -8 -10   3  108.24    8.82
   8  10  -3   82.89    7.77
  -8  10   4  352.17   23.88
  -8 -10   4  327.99   23.81
  -8  10   4  375.02   24.79
  -8  10   4  324.57   24.53
  -8  10   5   19.22    3.63
  -8  10   5   17.10    3.41
  -8  10   5   22.11    3.07
  -8 -10   5   27.40    3.46
  -8  10   6   13.88    2.85
  -8  10   6   15.73    3.17
   8  10  -6   10.42    1.95
  -8 -10   6   11.96    2.25
   8  10  -7  311.26   21.53
  -8  10   7  348.23   23.23
  -8  10   7  303.44   22.86
   8  10  -8  132.46   10.25
  -8  10   8  124.93   11.34
  -8  10   9  787.98   49.28
   8  10  -9  718.76   47.65
  -8  10   9  706.58   48.91
  -8  10  10  425.17   29.77
   8  10 -10  431.89   28.55
  -8  10  10  418.35   29.70
  -8  10  11  233.36   17.47
   8  10 -11  236.25   16.41
  -8  10  11  223.63   17.36
  -8  10  12  460.83   30.71
   8  10 -12  435.95   29.48
  -8  10  12  429.22   30.51
   8  10 -13  105.72    8.08
   8  10 -13   91.28    8.12
   8 -10 -13   95.14    8.68
  -8  10  13  103.21    8.93
   8  10 -14  663.12   41.65
   8  10 -14  625.30   41.79
   8 -10 -14  622.98   42.38
  -8  10  14  607.61   42.35
   8  10 -15  242.22   17.49
   8 -10 -15  238.49   17.91
   8  10 -15  249.87   17.30
  -8  10  15  250.45   18.06
  -8  10  16 1030.72   67.66
   8  10 -16 1055.79   67.01
   8 -10 -16 1022.78   67.61
   8  10 -17   66.72    5.76
   8 -10 -17   63.54    6.09
  -8  10  17   61.40    6.09
   8  10 -18    9.53    1.87
   8 -10 -18    5.80    1.78
  -8  10  18    5.97    1.80
   8  10 -19   80.42    5.61
   8 -10 -19   74.50    5.75
  -8  10  19   79.11    5.96
   8  10 -20  169.85   11.93
   8 -10 -20  162.37   11.99
  -8  10  20  166.53   12.14
   8  10 -21  133.46    9.68
   8  10 -21  132.35    9.93
   8  10 -22  143.58   10.10
   8  10 -22  139.83   10.28
   8  10 -23   20.36    2.31
   8  10 -23   20.05    2.15
   8  10 -24   12.46    1.51
   8  10 -24   16.45    1.77
  -8 -12 -12    2.58    0.65
  -8 -12 -12    2.24    0.64
  -8 -12 -11  144.70   10.15
  -8 -12 -11  152.22   10.07
  -8 -12 -10    1.56    0.73
  -8 -12  -9  103.66    7.44
  -8 -12  -8   15.88    1.94
  -8 -12  -8   16.58    2.21
  -8 -12  -7   97.89    8.25
   8  12   7  124.20    8.29
  -8 -12  -6    0.88    1.13
   8  12   6    0.69    0.81
  -8 -12  -5  205.16   15.27
   8  12   5  227.89   15.04
  -8 -12  -4   54.12    5.36
   8  12   4   64.99    5.15
  -8 -12  -3  278.79   18.99
   8  12   3  267.71   18.41
  -8 -12  -2   32.68    3.75
  -8 -12  -1   29.74    3.59
  -8 -12   0   19.94    2.96
  -8 -12   1  190.93   13.91
  -8 -12   2   11.71    2.22
   8  12  -3  786.46   51.97
  -8 -12   3  824.77   52.32
   8  12  -4    8.20    1.79
  -8 -12   4   12.81    2.09
  -8  12   5    8.89    2.28
   8  12  -5   10.03    1.83
  -8  12   6    1.95    1.46
   8  12  -6    3.26    1.24
  -8  12   7  617.38   36.83
   8  12  -7  504.48   36.07
  -8  12   7  554.62   37.19
  -8  12   8   45.97    4.75
   8  12  -8   50.09    4.52
   8 -12  -8   44.64    4.87
  -8  12   8   44.57    5.08
   8  12  -9 1797.19  121.79
  -8  12   9 2090.90  122.39
   8 -12  -9 1889.78  122.57
  -8  12   9 1938.22  122.82
  -8  12  10    7.82    2.07
   8 -12 -10   10.65    2.34
   8  12 -10   10.41    1.88
  -8  12  10   12.34    2.29
   8  12 -11  417.82   28.17
   8 -12 -11  384.47   28.61
  -8  12  11  462.12   28.57
  -8  12  11  436.60   28.98
  -8  12  12   52.27    4.87
   8  12 -12   48.96    4.58
  -8  12  12   57.32    5.36
  -8  12  13   87.69    7.17
  -8  12  13   94.94    7.64
   8 -12 -14   45.13    4.43
  -8  12  14   42.96    4.20
  -8  12  14   51.65    4.70
   8 -12 -15  460.27   31.56
  -8  12  15  499.63   31.78
   8 -12 -16    5.30    1.34
   8 -12 -16    2.46    1.07
   8 -12 -17  361.73   21.86
   8 -12 -17  305.73   21.46
   8 -12 -18    4.14    0.96
   8 -14  -3  142.19    9.80
   8 -14  -4   88.71    6.49
   8 -14  -5   49.23    4.06
   8 -14  -6    4.72    1.11
   8 -14  -7  413.59   26.87
   8 -14  -8  166.68   11.35
   8 -14  -9  445.71   27.49
   8 -14  -9  403.40   27.47
  -9  -1 -25  104.73    7.46
  -9  -1 -24  170.45   11.96
  -9  -1 -23   26.21    3.12
  -9  -1 -22  814.88   53.14
  -9  -1 -21   30.42    3.91
  -9  -1 -20  220.00   16.43
  -9  -1 -19    5.64    1.58
  -9  -1 -19    6.41    2.41
  -9  -1 -18    2.86    1.77
  -9  -1 -18    5.34    2.20
  -9  -1 -18    1.03    1.11
  -9  -1 -17    2.42    2.83
  -9   1 -17    2.24    3.21
  -9  -1 -17    0.60    2.10
  -9  -1 -17    0.62    1.99
  -9  -1 -17    2.54    1.41
  -9  -1 -16   93.62    8.88
  -9  -1 -16   98.32   14.92
  -9  -1 -16  101.89    8.09
  -9  -1 -16  106.00    9.34
  -9  -1 -15  261.98   20.47
  -9   1 -15  276.36   19.21
  -9  -1 -15  284.24   19.52
  -9  -1 -15  291.80   20.92
  -9  -1 -15  269.08   28.26
  -9  -1 -14   16.80    6.45
  -9  -1 -14   23.83    3.85
  -9  -1 -14   24.66    4.15
  -9  -1 -14   20.12    3.53
  -9   1 -14   24.81    3.00
  -9  -1 -14   26.04    3.24
  -9  -1 -13   77.72    6.77
  -9  -1 -13   67.24    7.30
  -9  -1 -13   76.33    6.20
  -9  -1 -13   91.79    7.79
  -9   1 -13   69.46    7.14
  -9   1 -13   94.76    7.57
  -9  -1 -13   87.40    7.99
  -9   1 -13   73.74    6.44
  -9  -1 -13   74.58   13.13
  -9   1 -12  255.31   18.08
  -9  -1 -12  295.19   19.69
  -9  -1 -12  251.36   19.00
  -9   1 -12  226.99   18.63
  -9  -1 -12  273.71   18.50
  -9   1 -12  267.86   18.96
  -9  -1 -12  292.35   27.46
  -9  -1 -12  264.96   17.89
  -9  -1 -12  275.18   19.67
  -9   1 -11    3.88    1.68
  -9   1 -11    2.62    1.27
  -9   1 -11    4.29    1.67
  -9  -1 -11    0.35    1.09
  -9  -1 -11    5.13    1.18
  -9  -1 -11    5.67    1.96
  -9  -1 -11   -2.11    3.03
  -9   1 -10   16.27    2.81
  -9  -1 -10   18.29    3.24
  -9   1 -10   15.75    2.77
  -9   1 -10   20.45    2.54
  -9  -1 -10   21.21    2.83
  -9  -1 -10   23.96    2.60
  -9  -1  -9  375.81   26.94
  -9  -1  -9  418.47   26.80
  -9   1  -9  379.93   26.53
  -9   1  -9  374.61   25.97
  -9  -1  -9  458.05   34.65
  -9   1  -9  411.25   26.77
  -9  -1  -8   23.29    2.86
  -9   1  -8   12.99    1.96
  -9  -1  -8   23.85    6.06
  -9  -1  -8   14.83    2.65
  -9   1  -8   14.85    2.65
  -9  -1  -7    4.71    3.68
  -9  -1  -6   27.62    6.14
  -9   1  -5  105.76    8.14
  -9  -1  -5  131.48   13.27
  -9  -1  -4  166.40   11.87
  -9  -1  -4  193.18   17.10
  -9  -1  -3   16.47    2.05
  -9  -1  -3   23.40    5.40
  -9  -1  -2  215.00   14.76
  -9  -1  -2  239.93   19.86
  -9  -1  -1    1.18    2.92
  -9  -1   0   22.12    5.19
  -9  -1   1  111.98   12.11
  -9  -1   2  586.58   42.85
   9  -1  -2  594.37   42.39
  -9  -1   3  272.33   20.31
   9  -1  -3  242.31   20.62
  -9  -1   4  423.45   29.87
   9  -1  -4  405.86   30.52
  -9  -1   5   27.66    4.30
   9  -1  -5   35.76    5.13
  -9  -1   6    4.89    1.99
   9   1  -6    5.88    1.00
  -9  -1   7   44.36    5.33
   9  -1  -8  330.83   23.51
  -9  -1   8  383.32   25.30
   9  -1  -9  393.95   26.61
  -9  -1   9  385.97   27.77
   9  -1 -10  386.47   26.22
  -9  -1  10  369.62   27.30
   9  -1 -11   36.29    4.72
  -9  -1  11   57.62    6.20
  -9  -1  12  158.37   13.22
   9  -1 -12  140.80   12.00
   9  -1 -13  241.33   19.29
  -9  -1  13  277.90   20.70
  -9  -1  14  398.02   28.10
   9  -1 -14  342.43   26.48
   9  -1 -15  117.63   10.73
   9  -1 -15   96.02   10.69
  -9  -1  15   99.64   10.75
  -9  -1  16  605.47   42.62
   9  -1 -16  504.89   40.89
   9  -1 -16  653.85   43.05
   9  -1 -16  573.99   38.32
   9   1 -16  601.34   38.52
   9  -1 -17  496.63   40.32
  -9  -1  17  583.32   41.08
   9  -1 -17  519.06   39.61
   9   1 -17  539.58   35.81
   9  -1 -17  556.73   36.44
   9   1 -17  584.17   36.65
   9  -1 -18    6.54    3.15
  -9  -1  18   11.68    3.94
   9  -1 -18   13.46    3.67
   9  -1 -18   13.84    2.36
   9   1 -18   13.00    1.90
  -9  -1  19   61.20    9.00
   9  -1 -19   54.21    5.45
   9  -1 -19   60.29    8.98
   9   1 -19   61.27    5.12
  -9  -1  20  897.41   64.66
   9   1 -20  901.98   58.50
   9  -1 -20  908.78   59.18
   9  -1 -20  947.34   65.14
   9  -1 -21   12.15    2.25
   9   1 -21    8.57    1.77
   9   1 -22 1630.58  107.27
   9  -1 -22 1772.06  108.11
  -9  -1  22 1658.04  114.29
   9   1 -23   64.31    5.70
  -9  -1  23   54.15    9.43
   9  -1 -23   68.86    6.36
   9   1 -24  244.83   16.62
   9  -1 -24  240.44   17.24
  -9  -1  24  223.13   22.55
   9  -1 -24  266.27   24.28
   9  -1 -25   84.07    7.08
   9   1 -25   68.92    6.19
  -9  -1  25   71.31   11.24
  -9   1  25   54.80   10.77
   9   1 -25   69.59   12.16
   9  -1 -25   84.29   12.36
   9  -1 -26  332.98   23.31
   9  -1 -27  128.19   10.26
   9  -1 -28  778.21   51.01
   9  -1 -29    7.91    2.05
   9  -1 -30  245.84   17.36
   9  -1 -31    5.71    1.61
   9  -1 -32  174.20   12.35
  -9  -3 -24   25.99    2.50
  -9   3 -24   33.12    2.84
  -9  -3 -23   34.97    3.48
  -9   3 -23   47.40    4.01
  -9  -3 -22   38.89    3.73
  -9   3 -22   34.19    3.93
  -9  -3 -21   43.25    4.73
  -9   3 -21   54.25    5.38
  -9  -3 -21   60.81    4.66
  -9  -3 -20   53.50    5.61
  -9  -3 -20   60.74    5.30
  -9  -3 -19   83.66    7.94
  -9   3 -19  113.02    9.18
  -9  -3 -19   98.78    7.76
  -9   3 -18  103.57   10.28
  -9  -3 -18  124.25   10.05
  -9  -3 -18  130.94    9.60
  -9  -3 -17  307.97   25.09
  -9   3 -17  407.45   26.80
  -9  -3 -17  356.78   25.55
  -9   3 -17  382.74   25.31
  -9  -3 -17  378.05   25.00
  -9  -3 -16   10.65    5.04
  -9  -3 -16   16.95    3.13
  -9   3 -16   11.42    3.27
  -9   3 -16    6.75    2.51
  -9  -3 -16   20.74    3.34
  -9   3 -16    7.82    2.22
  -9  -3 -16   17.19    2.79
  -9  -3 -15  219.82   17.79
  -9   3 -15  276.52   19.44
  -9  -3 -15  212.04   24.38
  -9  -3 -15  273.34   18.57
  -9   3 -15  247.33   17.68
  -9  -3 -15  256.91   17.59
  -9  -3 -15  235.34   16.69
  -9   3 -15  216.92   23.17
  -9  -3 -15  221.63   17.86
  -9  -3 -14  167.76   14.04
  -9   3 -14  211.69   15.66
  -9  -3 -14  196.51   14.63
  -9  -3 -14  200.61   14.58
  -9   3 -14  167.26   13.66
  -9  -3 -14  186.51   13.78
  -9  -3 -14  155.28   19.77
  -9   3 -14  158.52   18.56
  -9  -3 -14  180.56   13.09
  -9  -3 -13  153.47   12.58
  -9   3 -13  168.39   13.80
  -9   3 -13  151.92   17.30
  -9  -3 -13  159.19   12.80
  -9  -3 -13  159.48   12.83
  -9   3 -13  142.25   12.01
  -9  -3 -13  174.86   12.42
  -9  -3 -13  163.45   11.75
  -9  -3 -13  129.14   17.77
  -9  -3 -12    2.06    4.51
  -9   3 -12    1.65    2.72
  -9  -3 -12    1.08    1.54
  -9  -3 -12    6.24    2.06
  -9   3 -12    2.82    2.03
  -9   3 -12    2.77    1.83
  -9   3 -12    0.47    1.29
  -9  -3 -12    3.24    1.79
  -9   3 -12    3.45    1.48
  -9   3 -12    0.42    1.26
  -9  -3 -12    1.04    1.00
  -9   3 -11    9.83    2.37
  -9  -3 -11    7.54    2.15
  -9  -3 -11    4.48    1.92
  -9   3 -11    6.06    2.52
  -9   3 -11   11.01    2.22
  -9  -3 -11    6.22    2.13
  -9   3 -11    4.94    1.81
  -9   3 -11    3.58    1.55
  -9  -3 -11    7.75    1.77
  -9  -3 -11    1.97    3.28
  -9   3 -11    6.26    3.68
  -9  -3 -10    6.57    1.98
  -9  -3 -10    3.30    1.70
  -9   3 -10    3.80    2.03
  -9  -3 -10    0.49    1.63
  -9   3 -10    0.83    1.24
  -9   3 -10    1.11    1.15
  -9   3 -10    2.81    1.65
  -9  -3 -10    2.12    1.24
  -9  -3 -10    3.74    3.10
  -9   3 -10   -1.48    1.73
  -9   3 -10    3.50    1.61
  -9   3  -9    0.83    1.35
  -9  -3  -9    0.44    1.39
  -9   3  -9    5.31    2.25
  -9   3  -9    6.76    1.71
  -9  -3  -9    9.43    2.09
  -9   3  -9    8.49    1.82
  -9  -3  -9   11.55    3.53
  -9   3  -9    1.72    1.19
  -9  -3  -9    3.17    1.42
  -9  -3  -9    1.76    2.06
  -9   3  -9   11.06    3.80
  -9  -3  -8   98.67    8.65
  -9   3  -8  108.08    9.43
  -9   3  -8   97.59    8.32
  -9   3  -8  112.03    8.59
  -9  -3  -8  104.43   11.63
  -9  -3  -8  124.63   14.15
  -9   3  -8   87.95   11.44
  -9   3  -8  106.63    8.55
  -9   3  -8  113.75    8.40
  -9  -3  -8  107.63    8.47
  -9   3  -7  166.02   12.46
  -9   3  -7  170.54   12.57
  -9  -3  -7  156.79   17.10
  -9   3  -7  143.49   15.74
  -9  -3  -7  178.14   12.69
  -9   3  -6    5.30    1.49
  -9  -3  -6    6.70    2.54
  -9  -3  -6    4.22    2.63
  -9  -3  -5  150.75   11.23
  -9   3  -5  150.11   11.09
  -9  -3  -5  184.11   16.34
  -9   3  -5  158.87   14.62
  -9  -3  -5  158.35   13.88
  -9   3  -4  569.37   37.70
  -9  -3  -4  612.34   42.94
  -9   3  -4  529.29   41.16
  -9  -3  -4  659.89   40.94
  -9  -3  -4  575.01   37.91
  -9  -3  -3   11.86    2.01
  -9  -3  -3   22.52    3.65
  -9   3  -3   21.16    2.25
  -9  -3  -3   11.39    3.79
  -9   3  -3   17.99    3.89
  -9  -3  -2   19.56    2.46
  -9   3  -2   26.98    2.53
  -9   3  -2   17.58    4.07
  -9   3  -2   21.66    2.59
  -9  -3  -2   21.13    3.45
  -9  -3  -2   19.59    4.53
  -9  -3  -1  257.89   17.21
  -9  -3  -1  284.34   18.73
  -9  -3  -1  275.49   21.54
  -9   3  -1  240.44   20.39
  -9   3  -1  236.13   17.24
  -9   3   0  127.36    9.94
  -9  -3   0  147.50   13.74
  -9   3   0  151.56   13.35
  -9  -3   0  149.65   10.87
  -9   3   0  138.25    9.85
  -9  -3   1  232.66   20.20
  -9   3   1  236.69   20.20
  -9   3   1  214.84   16.62
  -9  -3   1  277.78   17.27
   9  -3  -1  259.50   20.59
   9   3  -1  226.36   19.27
  -9   3   1  261.00   16.55
  -9  -3   2  439.26   31.51
  -9   3   2  394.29   30.98
  -9   3   2  351.92   26.98
  -9  -3   2  480.69   27.27
   9  -3  -2  376.25   30.09
   9   3  -2  453.56   30.31
  -9  -3   3  845.68   61.37
  -9   3   3  765.47   61.17
  -9  -3   3  920.82   57.10
   9  -3  -3  885.24   60.63
   9   3  -3  938.67   60.64
   9   3  -4  248.00   19.09
  -9   3   4  215.70   20.06
  -9  -3   4  307.29   20.91
   9  -3  -4  277.39   20.66
   9   3  -4  302.45   20.97
  -9   3   5  741.65   49.42
   9   3  -5  667.63   47.53
  -9  -3   5  781.62   49.05
  -9  -3   6  187.34   13.84
  -9   3   6  144.18   13.59
   9   3  -6  162.06   12.64
   9   3  -7  346.17   24.83
  -9  -3   7  372.61   25.79
  -9   3   7  360.88   26.37
  -9  -3   8  358.06   24.71
  -9   3   8  318.71   24.96
  -9  -3   9  167.22   13.24
  -9   3   9  152.54   13.67
  -9  -3  10   -0.66    1.54
  -9   3  11  165.65   14.98
  -9  -3  11  185.58   14.73
  -9  -3  12  348.39   24.67
  -9   3  12  303.38   24.91
   9  -3 -13  310.19   26.15
  -9  -3  13  394.17   26.65
  -9   3  13  335.45   26.89
   9   3 -13  335.58   26.59
   9  -3 -13  366.96   26.28
   9   3 -14  270.63   22.54
   9  -3 -14  258.93   22.08
  -9  -3  14  320.85   22.72
   9  -3 -14  290.49   22.22
  -9   3  14  253.79   22.53
  -9  -3  15 3037.23  177.30
  -9   3  15 2554.52  177.46
   9  -3 -15 2558.22  176.67
   9  -3 -15 2748.87  172.64
   9  -3 -15 2824.28  176.71
   9   3 -15 2707.95  172.88
   9   3 -15 2667.73  177.31
   9  -3 -16   47.92    8.16
  -9   3  16   73.01    9.85
   9   3 -16   82.39    6.24
   9   3 -16   76.85    5.98
   9  -3 -16   71.13    6.09
   9   3 -16   70.43    6.30
   9  -3 -16   58.94    8.46
   9   3 -16   77.68    9.73
  -9  -3  16   83.13    9.46
   9  -3 -17 1238.66   81.86
  -9  -3  17 1382.59   82.89
  -9   3  17 1117.10   82.92
   9  -3 -17 1094.80   81.76
   9   3 -17 1192.08   77.56
   9   3 -17 1248.64   77.31
   9   3 -17 1101.94   82.08
   9  -3 -17 1197.32   77.27
  -9   3  18    6.33    3.22
   9  -3 -18    2.72    2.26
   9   3 -18    6.94    1.64
   9   3 -18    5.69    3.12
   9  -3 -18    6.08    2.67
   9  -3 -18    3.66    1.34
   9   3 -18    1.94    1.35
  -9  -3  18    2.57    2.39
   9   3 -19  139.15   10.84
   9  -3 -19  138.27   15.18
   9   3 -19  141.88   10.59
  -9   3  19   98.01   14.23
   9   3 -19  128.65   14.87
   9  -3 -19  147.71   14.80
   9  -3 -19  146.93   10.64
  -9  -3  19  140.47   14.86
   9  -3 -20   63.31    5.74
   9   3 -20   63.24    5.72
  -9  -3  20   68.67    9.76
  -9   3  20   60.67   10.10
   9  -3 -20   51.08    8.88
   9   3 -20   60.53    5.89
  -9  -3  21  192.99   18.50
  -9   3  21  128.39   17.57
   9  -3 -21  184.36   18.43
   9   3 -21  179.50   12.97
   9  -3 -21  161.72   12.78
   9   3 -21  175.09   13.28
   9   3 -21  190.54   13.28
   9  -3 -22  390.02   25.48
  -9  -3  22  374.43   31.39
  -9   3  22  306.71   31.38
   9  -3 -22  284.87   30.13
   9   3 -22  380.68   25.45
   9   3 -22  369.00   25.58
   9   3 -22  386.10   25.83
   9   3 -23   34.09    3.70
  -9  -3  23   30.70    6.75
   9  -3 -23   21.67    3.22
   9   3 -23   26.38    3.59
   9   3 -23   26.45    3.53
   9   3 -23   14.96    6.02
   9  -3 -23   27.37    6.73
  -9   3  23   31.07    7.71
   9   3 -24   14.07    2.51
  -9  -3  24   11.38    4.75
   9  -3 -24   14.17    2.57
  -9   3  24   15.55    5.41
   9   3 -24   18.70    3.00
   9   3 -24   15.94    2.75
   9   3 -24   15.18    5.74
   9  -3 -24   14.74    4.97
   9   3 -25  157.01   11.87
   9  -3 -25  151.35   11.77
   9   3 -25  172.01   12.35
   9   3 -25  147.91   12.04
   9   3 -26    7.19    1.86
   9   3 -26    4.29    1.97
   9   3 -26    8.23    2.05
   9   3 -27  611.89   41.79
   9   3 -27  672.34   42.29
   9  -3 -27  633.37   41.88
   9  -3 -28  229.10   15.13
   9   3 -28  204.31   15.16
   9   3 -28  196.26   14.70
   9  -3 -29  772.08   49.71
   9   3 -29  797.87   50.01
   9   3 -29  735.82   49.37
   9  -3 -30   17.64    2.42
   9   3 -30   14.33    2.38
   9  -3 -31    9.11    1.61
   9   3 -31    5.94    1.55
  -9  -5 -21  492.42    8.28
   9   5  21  483.00    9.42
  -9  -5 -20  298.16   17.64
  -9   5 -20  273.96   17.71
  -9  -5 -19   24.51    2.88
  -9   5 -19   20.88    3.19
  -9  -5 -18    3.67    1.56
  -9   5 -18    7.90    2.27
  -9  -5 -18   11.34    2.03
  -9  -5 -17   68.12    6.29
  -9   5 -17   87.50    7.26
  -9  -5 -17   85.82    6.76
  -9  -5 -17   64.90    5.73
  -9  -5 -16   15.31    2.55
  -9   5 -16   15.58    2.92
  -9   5 -16   11.37    2.65
  -9  -5 -16   12.50    2.44
  -9  -5 -16   10.53    1.87
  -9  -5 -15  155.75   12.72
  -9   5 -15  186.58   13.79
  -9   5 -15  161.81   13.28
  -9  -5 -15  186.19   13.25
  -9  -5 -15  172.20   12.52
  -9  -5 -14    1.29    1.28
  -9   5 -14    2.88    1.97
  -9  -5 -14    0.50    1.44
  -9   5 -14    5.69    2.09
  -9   5 -14    1.58    1.69
  -9  -5 -14   -0.81    1.84
  -9   5 -14    3.07    1.41
  -9   5 -14    3.69    1.91
  -9  -5 -14    2.62    1.28
  -9  -5 -13   76.48    7.34
  -9   5 -13  100.15    8.47
  -9   5 -13   68.88   10.37
  -9  -5 -13   79.81    7.72
  -9   5 -13   95.70    8.08
  -9  -5 -13   99.82    7.65
  -9   5 -13   75.67    6.92
  -9  -5 -13   85.21    7.38
  -9   5 -13   80.91    7.45
  -9   5 -13   96.45    8.77
  -9   5 -12   35.61    3.55
  -9  -5 -12   17.51    6.00
  -9   5 -12   41.47    7.32
  -9  -5 -12   21.22    3.40
  -9   5 -12   44.99    4.97
  -9  -5 -12   23.18    3.69
  -9   5 -12   42.32    5.13
  -9   5 -12   25.72    3.84
  -9  -5 -12   26.20    6.23
  -9  -5 -12   28.81    3.66
  -9  -5 -12   20.99    3.49
  -9   5 -12   39.08    4.14
  -9  -5 -12   23.15    3.37
  -9  -5 -11  893.11   58.32
  -9   5 -11  938.59   59.15
  -9  -5 -11  934.43   58.82
  -9   5 -11  857.04   58.50
  -9  -5 -11  911.92   64.07
  -9  -5 -11  939.59   58.26
  -9   5 -11  846.49   57.63
  -9   5 -11  976.31   59.47
  -9   5 -11  812.90   62.13
  -9   5 -11  821.34   58.04
  -9  -5 -11  922.73   64.55
  -9  -5 -11  907.11   58.32
  -9  -5 -10  115.39   10.49
  -9   5 -10  168.71   11.83
  -9  -5 -10  119.94   10.39
  -9  -5 -10  129.15   10.94
  -9   5 -10  130.24   11.29
  -9   5 -10  146.94   11.10
  -9  -5 -10  118.60   14.09
  -9   5 -10  160.43   10.48
  -9  -5 -10  134.23   15.02
  -9   5 -10  154.87   10.82
  -9  -5 -10  127.96   10.73
  -9   5 -10  125.87   13.71
  -9   5  -9  351.27   25.20
  -9  -5  -9  353.90   24.86
  -9   5  -9  353.14   24.50
  -9  -5  -9  376.44   30.11
  -9  -5  -9  404.03   24.85
  -9  -5  -9  383.59   29.54
  -9   5  -9  341.47   24.10
  -9   5  -9  355.62   24.88
  -9   5  -9  363.63   25.27
  -9   5  -9  337.89   28.03
  -9   5  -8   30.09    4.21
  -9   5  -8   36.33    3.61
  -9   5  -8   29.41    4.05
  -9   5  -8   34.85    4.01
  -9  -5  -8   38.28    4.09
  -9  -5  -8   41.15    6.81
  -9   5  -8   37.79    3.90
  -9  -5  -8   50.59    4.76
  -9  -5  -8   37.30    7.12
  -9   5  -8   24.87    5.31
  -9   5  -7  179.87   14.13
  -9   5  -7  187.16   13.60
  -9  -5  -7  188.30   13.78
  -9   5  -7  187.59   13.95
  -9  -5  -7  198.46   17.61
  -9   5  -7  199.09   13.48
  -9  -5  -7  206.87   18.39
  -9   5  -7  170.83   16.43
  -9  -5  -7  207.74   14.40
  -9   5  -7  185.93   14.13
  -9  -5  -6   40.88    4.27
  -9   5  -6   41.40    4.22
  -9  -5  -6   36.50    6.18
  -9   5  -6   46.21    4.06
  -9  -5  -6   37.05    4.30
  -9   5  -6   37.45    4.22
  -9  -5  -6   29.30    6.13
  -9   5  -6   29.43    5.30
  -9  -5  -5  357.27   23.10
  -9   5  -5  337.04   25.69
  -9   5  -5  310.60   22.77
  -9  -5  -5  363.69   26.53
  -9  -5  -5  349.92   27.02
  -9   5  -5  320.37   23.00
  -9  -5  -5  358.67   23.46
  -9  -5  -4   99.98    7.25
  -9  -5  -4   86.11    9.35
  -9  -5  -4   93.17   10.24
  -9   5  -4   70.26    8.62
  -9  -5  -4   97.55    7.55
  -9   5  -4   72.25    6.88
  -9  -5  -3  678.53   44.70
  -9  -5  -3  696.47   48.33
  -9  -5  -3  751.72   47.82
  -9   5  -3  634.31   46.90
  -9  -5  -3  693.19   45.31
  -9  -5  -2  144.42   11.51
  -9  -5  -2  141.24   14.00
  -9   5  -2  171.24   13.86
  -9  -5  -2  151.99   13.67
  -9   5  -2  178.76   12.38
  -9  -5  -2  150.68   12.10
   9  -5   2  175.78   15.40
   9   5   2  183.99   14.66
  -9   5  -2  182.11   12.19
  -9  -5  -1 1270.52   76.69
  -9   5  -1 1074.72   75.03
  -9   5  -1 1078.85   73.48
  -9  -5  -1 1236.41   75.51
   9  -5   1 1042.77   75.92
   9   5   1 1165.85   75.85
  -9   5  -1 1170.10   73.36
   9  -5   0   17.73    3.61
  -9   5   0   17.24    2.50
   9   5   0   22.16    3.91
  -9  -5   0   24.52    4.24
  -9   5   0   22.62    3.77
  -9   5   0   18.95    2.83
  -9  -5   1  154.98   13.16
  -9   5   1  138.23   12.26
  -9   5   1  129.22   10.93
   9   5  -1  147.14   13.24
   9   5  -1  171.96   13.08
   9  -5  -1  151.28   12.80
  -9   5   1  147.45   10.72
  -9  -5   2   72.73    8.19
  -9   5   2   71.38    7.69
  -9   5   2   69.15    6.50
   9   5  -2   77.62    8.31
   9   5  -2   74.49    5.59
  -9   5   2   82.03    6.25
  -9   5   3   12.73    2.03
  -9   5   3   20.00    2.78
  -9  -5   3   13.31    3.42
  -9   5   3    8.94    2.76
   9   5  -3   22.54    3.87
  -9  -5   4    7.02    2.92
  -9   5   4   14.77    3.42
   9   5  -4   15.82    3.37
  -9   5   4   13.91    2.01
  -9  -5   5  104.83   10.46
  -9   5   5   82.54    9.71
  -9   5   5   85.82    6.98
   9   5  -5  105.06    9.61
  -9  -5   6   10.97    3.18
  -9   5   6   12.68    3.83
   9   5  -6   10.33    2.85
  -9   5   6    8.93    1.65
  -9   5   7  931.90   65.21
  -9  -5   7 1026.85   65.03
   9   5  -7  943.83   65.33
  -9   5   7  978.93   62.50
  -9  -5   8  302.87   22.00
  -9   5   8  282.68   22.39
  -9   5   8  292.93   19.80
  -9  -5   9 1464.78   93.18
  -9   5   9 1410.05   93.88
  -9   5   9 1415.56   90.83
  -9  -5  10   14.42    3.13
  -9   5  10   14.47    3.63
   9   5 -10   15.87    3.27
  -9   5  10   13.02    1.98
   9  -5 -11  700.88   44.81
  -9  -5  11  710.56   45.16
  -9   5  11  615.02   45.47
   9   5 -11  693.62   45.40
  -9   5  11  615.41   42.45
   9  -5 -12  331.30   24.72
   9   5 -12  333.81   25.46
   9   5 -12  346.93   22.65
  -9  -5  12  370.08   25.36
  -9   5  12  331.31   25.85
  -9   5  12  315.70   22.55
  -9  -5  13    4.07    2.03
  -9   5  13    3.05    2.07
   9   5 -13    4.21    1.33
   9   5 -13    1.86    1.73
   9  -5 -13    2.34    1.60
  -9   5  13    4.64    1.35
   9   5 -14  119.50    8.57
  -9  -5  14  103.94   10.65
   9  -5 -14  141.34   11.50
  -9   5  14  108.72   11.71
   9   5 -14  100.49    8.21
  -9   5  14   97.05    8.31
   9   5 -14  110.36   11.32
   9  -5 -15  797.97   53.33
  -9  -5  15  815.03   53.81
   9  -5 -15  743.25   56.55
  -9   5  15  821.86   54.95
   9   5 -15  718.82   53.71
   9   5 -15  750.52   49.94
  -9   5  15  733.87   50.09
   9   5 -15  821.31   50.30
   9  -5 -16   -1.67    2.76
   9   5 -16    2.62    1.24
   9   5 -16    4.60    1.49
   9  -5 -16    0.88    1.37
   9   5 -16    1.15    2.33
   9  -5 -16   -0.97    2.40
   9   5 -16    1.25    1.04
  -9  -5  16    1.05    1.73
  -9   5  16   -2.57    3.19
  -9   5  16    6.99    1.61
  -9   5  17  277.14   25.48
   9  -5 -17  311.84   27.52
   9   5 -17  318.98   21.31
   9  -5 -17  318.92   20.63
   9   5 -17  316.54   21.17
  -9  -5  17  323.43   25.12
   9  -5 -17  296.18   24.21
   9   5 -17  299.67   20.81
   9  -5 -17  328.01   21.61
  -9   5  17  258.65   20.73
   9  -5 -18    3.67    3.04
   9  -5 -18    4.78    1.80
   9  -5 -18    0.86    1.02
   9   5 -18    3.06    1.30
   9   5 -18    4.93    1.64
  -9  -5  18    2.45    2.03
  -9   5  18    2.94    3.21
  -9   5  18    0.73    1.09
   9   5 -19  146.44   10.70
   9  -5 -19  127.76   16.06
   9   5 -19  157.49   11.25
  -9  -5  19  152.19   15.06
  -9   5  19  117.31   14.66
   9  -5 -19  137.42   10.91
   9  -5 -19  129.53   10.25
   9   5 -20  261.12   17.64
   9  -5 -20  248.18   24.69
   9   5 -20  271.18   18.15
  -9  -5  20  232.61   22.03
   9   5 -20  230.18   22.39
  -9   5  20  238.41   23.11
   9  -5 -20  236.00   17.20
   9  -5 -21 1471.42  104.10
   9   5 -21 1578.90   95.94
  -9   5  21 1437.60  101.82
   9   5 -21 1471.99   95.32
   9   5 -21 1446.98  101.39
   9  -5 -21 1465.68   95.02
   9   5 -22  510.63   31.78
   9   5 -22  515.65   32.52
   9  -5 -22  451.25   39.41
   9   5 -22  488.27   32.12
   9  -5 -22  441.06   31.23
  -9   5  22  371.61   36.57
   9   5 -22  443.26   37.35
   9   5 -23  868.86   57.36
   9  -5 -23  831.92   56.53
   9   5 -23  925.01   57.01
   9   5 -23  890.48   57.62
   9   5 -24   17.35    2.86
   9  -5 -24   23.36    2.77
   9   5 -24   19.00    2.77
   9   5 -24   22.72    3.40
   9   5 -25    3.93    1.49
   9   5 -25    6.61    1.94
   9  -5 -25    3.25    1.45
   9   5 -25    9.70    1.93
   9   5 -25    5.56    1.95
   9  -5 -25    8.35    1.72
   9  -5 -26    4.64    1.32
   9   5 -26    5.30    1.55
   9   5 -26    2.68    1.37
   9   5 -26    6.04    1.66
   9  -5 -27  352.69   25.18
   9   5 -27  385.16   25.49
   9   5 -27  402.45   25.93
   9   5 -27  396.85   26.00
   9   5 -28   -0.25    0.58
   9   5 -28  237.98    7.27
   9   5 -29  240.08    6.67
   9   5 -29   -0.18    0.25
   9   5 -30   15.82    1.91
  -9  -7 -21    2.18    0.62
  -9  -7 -20    6.80    1.15
  -9  -7 -19   71.42    5.55
   9   7  19   69.04    5.71
  -9  -7 -18   12.09    1.98
  -9  -7 -17    1.17    0.59
  -9  -7 -16  482.19   31.63
  -9  -7 -15  250.27   17.66
   9   7  15  262.16   18.09
  -9   7 -14  150.25   11.85
  -9   7 -14  160.31   12.33
  -9  -7 -14  148.88   11.80
  -9  -7 -14  152.52   11.57
   9   7  14  164.73   11.92
  -9  -7 -13   27.24    3.60
  -9   7 -13   26.90    4.24
  -9   7 -13   22.59    3.64
  -9   7 -13   22.77    3.37
  -9  -7 -13   28.06    3.52
   9   7  13   28.80    3.54
   9   7  12  103.45   13.11
  -9   7 -12  100.05    9.53
  -9   7 -12  114.56    9.32
  -9   7 -12  109.72    8.87
  -9  -7 -12   97.91    8.61
  -9   7 -11   85.93    8.16
   9   7  11   94.14   12.18
  -9   7 -11   89.07    7.80
  -9  -7 -11   99.87    8.15
  -9   7 -11   93.38    8.82
  -9   7 -10  160.93   13.15
  -9   7 -10  158.53   12.61
   9   7  10  129.04   16.26
  -9   7 -10  172.47   12.33
  -9  -7 -10  158.37   12.42
  -9   7  -9   64.54    7.14
  -9   7  -9   72.83    7.05
  -9  -7  -9   95.23   10.89
   9   7   9  106.53   12.16
  -9   7  -9   69.21    6.50
  -9  -7  -9   80.17    7.08
  -9   7  -8    9.73    2.25
  -9  -7  -8    8.98    3.61
  -9   7  -8   15.28    2.37
  -9   7  -8   18.87    3.22
  -9  -7  -8   13.36    2.63
  -9   7  -7    6.11    1.97
  -9   7  -7   12.69    2.11
  -9   7  -7    8.48    2.44
  -9   7  -6  375.95   27.25
  -9  -7  -6  439.13   31.73
  -9  -7  -6  379.31   27.49
  -9   7  -6  425.79   27.10
   9   7   6  409.91   27.16
  -9  -7  -5  115.26    9.13
  -9  -7  -5  110.00   12.06
   9   7   5  117.06   13.45
  -9  -7  -5  121.29    9.68
  -9  -7  -5  116.83    9.77
   9   7   5  119.82    9.16
  -9  -7  -4  319.84   23.16
  -9   7  -4  313.76   23.75
  -9  -7  -4  349.74   26.95
   9   7   4  354.91   28.60
  -9  -7  -4  377.01   23.93
  -9  -7  -4  351.97   24.07
   9   7   4  350.62   23.25
  -9  -7  -3  132.26    9.75
  -9  -7  -3  125.87   10.08
  -9   7  -3  101.35    9.78
  -9  -7  -3  130.52   12.73
   9   7   3  128.25   13.80
  -9  -7  -3  139.04   10.54
   9   7   3  139.24    9.72
  -9  -7  -2 1644.25  106.11
  -9  -7  -2 1715.22  109.74
   9   7   2 1698.75  111.70
  -9  -7  -2 1722.91  106.63
  -9  -7  -2 1759.91  107.08
   9   7   2 1739.25  106.08
  -9   7  -2 1574.66  107.13
  -9   7  -2 1546.92  106.58
  -9   7  -2 1611.64  107.09
  -9  -7  -1  149.58   11.32
  -9   7  -1  140.26   11.67
  -9  -7  -1  167.25   11.85
  -9   7  -1  141.87   12.24
   9   7   1  166.65   15.72
  -9  -7  -1  164.70   12.19
   9   7   1  180.10   11.45
  -9   7  -1  140.15   12.00
  -9   7   0  277.81   22.15
  -9   7   0  288.02   21.65
   9   7   0  322.20   25.99
  -9  -7   0  314.17   21.66
  -9  -7   0  333.20   22.23
   9   7   0  344.90   21.33
  -9   7   0  323.08   22.27
  -9   7   1   10.06    2.38
  -9   7   1   10.49    2.47
  -9   7   1   10.77    2.14
   9   7  -1   13.04    3.60
  -9  -7   1    8.94    1.92
  -9  -7   1   14.20    2.44
   9   7  -1   10.41    1.66
  -9   7   2  991.08   69.05
   9   7  -2 1145.09   73.15
  -9  -7   2 1112.23   68.71
   9   7  -2 1051.82   67.68
  -9   7   2 1034.36   68.24
  -9   7   2 1077.22   68.78
  -9   7   3  309.18   23.68
   9   7  -3  337.05   27.01
  -9  -7   3  351.81   23.34
   9   7  -3  337.36   22.45
  -9   7   3  348.33   23.03
  -9   7   3  335.91   23.40
  -9   7   4 1090.08   75.51
   9   7  -4 1235.66   79.38
  -9  -7   4 1177.52   74.89
  -9   7   4 1215.89   74.68
  -9   7   4 1111.63   75.02
  -9   7   5   22.87    3.53
  -9   7   5   28.02    3.00
   9   7  -5   19.47    4.49
  -9  -7   5   23.55    3.11
  -9   7   5   21.77    3.11
  -9   7   6  134.98    9.56
   9   7  -6  137.48   13.40
  -9  -7   6  116.42    9.55
  -9   7   6  124.68    9.95
  -9   7   7   55.73    4.81
  -9   7   7   49.28    5.14
  -9   7   8   40.13    4.41
  -9   7   9    3.30    1.38
  -9   7  10  283.98   20.09
  -9   7  11   19.27    3.06
  -9   7  12  125.08    9.80
   9   7 -12  113.17    9.27
   9   7 -13   98.83    8.36
  -9   7  13  105.64    8.71
   9   7 -14  335.22   23.54
   9   7 -14  376.82   23.77
  -9   7  14  312.58   23.68
   9   7 -15  257.64   18.31
   9  -7 -15  299.45   27.41
   9   7 -15  261.09   18.28
  -9   7  15  239.43   18.35
   9  -7 -16 1075.67   78.41
   9   7 -16 1113.16   68.68
   9  -7 -16 1143.21   69.31
  -9   7  16  934.23   68.43
   9  -7 -17  307.88   29.91
   9   7 -17  318.21   21.73
   9  -7 -17  340.02   22.40
  -9   7  17  274.20   21.53
   9  -7 -18   53.75   10.42
   9  -7 -18   50.43    5.45
  -9   7  18   39.57    4.76
   9  -7 -19    4.69    4.34
   9  -7 -19    2.51    1.77
  -9   7  19    3.57    1.58
   9  -7 -20  410.62   36.12
   9   7 -20  371.90   26.71
  -9   7  20  344.03   26.34
   9   7 -21    5.33    1.79
   9  -7 -21    5.45    1.80
   9   7 -22  268.23   20.26
   9  -7 -22  308.15   20.20
   9   7 -23   97.49    8.35
   9   7 -23  104.35    8.68
   9   7 -24   34.41    3.91
   9   7 -24   33.79    4.07
   9   7 -25   52.70    4.89
   9   7 -25   45.21    4.85
   9   7 -26  595.25   39.72
   9   7 -26  618.01   39.88
   9   7 -27  185.03   12.94
   9   7 -27  180.67   12.90
   9   7 -28  593.21   38.39
  -9  -9 -16   13.22    1.80
  -9  -9 -16   12.48    1.50
   9   9  16    9.70    1.65
  -9  -9 -15   21.61    2.45
  -9  -9 -15   26.67    2.80
   9   9  15   24.67    2.78
  -9  -9 -14    7.61    1.72
  -9  -9 -14    8.58    1.66
  -9  -9 -13   66.31    5.92
  -9  -9 -13   67.40    5.86
   9   9  13   75.35    6.07
  -9  -9 -12  159.77   11.67
  -9  -9 -12  144.45   11.48
   9   9  12  167.77   11.73
  -9   9 -11   38.95    5.29
  -9   9 -11   40.32    4.50
  -9  -9 -11   52.83    4.95
   9   9  11   57.92    4.96
  -9   9 -10  425.57   30.65
  -9  -9 -10  461.20   29.99
  -9   9 -10  402.08   29.43
   9   9  10  487.27   29.86
  -9  -9  -9  215.46   15.54
   9   9   9  206.78   15.14
   9   9   8  172.12   12.75
  -9   9  -7    3.56    2.01
   9   9   7   10.32    1.98
  -9  -9  -6   79.15    7.19
   9   9   6   79.24    6.74
  -9   9  -6   73.46    7.50
   9   9   5  261.11   24.28
  -9  -9  -5  277.60   19.18
  -9   9  -5  249.09   19.67
  -9  -9  -5  256.40   19.33
   9   9   5  282.86   18.82
  -9   9  -4   20.77    3.67
   9   9   4   28.22    5.96
  -9  -9  -4   26.77    3.52
  -9  -9  -4   16.85    3.20
   9   9   4   22.01    2.89
   9   9   3  180.63   19.47
  -9  -9  -3  211.30   15.41
  -9  -9  -3  212.23   15.80
  -9   9  -3  209.17   15.98
   9   9   3  216.48   15.08
  -9   9  -2  169.94   14.43
   9   9   2  200.45   19.39
  -9  -9  -2  195.87   14.13
  -9  -9  -2  194.20   14.59
   9   9   2  194.90   13.75
  -9   9  -1    6.71    2.49
   9   9   1    1.52    2.21
  -9  -9  -1    3.96    1.64
  -9  -9  -1    7.41    2.19
  -9   9  -1    6.65    2.22
   9   9   1    7.58    1.72
   9   9   0  212.64   19.79
  -9   9   0  204.68   15.43
  -9  -9   0  180.13   14.26
  -9  -9   0  198.96   14.99
  -9   9   0  200.56   15.03
   9   9   0  206.97   14.15
  -9   9   0  194.57   15.45
  -9   9   1  190.92   14.09
  -9   9   1  188.80   14.55
   9   9  -1  174.57   18.14
  -9  -9   1  173.37   13.88
   9   9  -1  187.31   13.20
  -9   9   1  181.70   14.50
   9   9  -2   70.94    9.82
  -9   9   2   71.34    6.85
  -9   9   2   66.56    6.26
  -9  -9   2   70.57    6.37
   9   9  -2   59.74    5.43
  -9   9   2   52.87    6.29
  -9   9   3   66.46    6.36
   9   9  -3   58.69    9.37
  -9   9   3   71.74    7.13
  -9  -9   3   72.08    6.59
   9   9  -3   71.05    5.87
  -9   9   3   66.03    6.90
  -9   9   4   33.15    4.62
  -9   9   4   41.66    5.05
  -9  -9   4   47.11    4.78
  -9   9   4   36.39    4.30
  -9   9   5  235.44   16.97
  -9   9   5  212.67   15.70
  -9  -9   5  215.75   15.78
  -9   9   5  211.68   16.44
  -9  -9   6  290.24   20.81
  -9   9   6  341.20   22.35
  -9   9   6  299.47   20.86
  -9   9   6  282.63   21.60
  -9   9   7   56.80    6.27
  -9   9   7   53.58    5.94
  -9   9   8 1641.24   95.90
  -9   9   8 1341.48   94.97
  -9   9   9  309.38   22.00
  -9   9   9  288.08   21.57
   9   9 -10 1642.81  103.59
  -9   9  10 1580.41  104.34
   9   9 -11   20.13    2.91
   9   9 -11   21.10    3.13
  -9   9  11   28.24    4.02
   9   9 -12  646.11   42.34
   9   9 -12  623.69   42.43
  -9   9  12  658.04   43.29
   9   9 -13   43.03    4.77
   9   9 -13   54.86    4.94
  -9   9  13   37.68    5.02
   9   9 -14   14.67    2.56
   9   9 -14   18.99    2.87
  -9   9  14   19.45    3.31
   9   9 -15    4.68    1.71
   9  -9 -15    2.40    3.46
   9   9 -15    4.81    1.65
   9  -9 -15    5.92    2.24
  -9   9  15    5.82    1.98
   9   9 -16    4.41    1.61
   9   9 -16    2.96    1.63
   9  -9 -16    6.80    2.22
  -9   9  16    4.61    1.87
   9   9 -17  171.59   12.47
   9   9 -17  168.84   12.32
   9  -9 -17  156.57   12.65
  -9   9  17  149.44   12.53
   9  -9 -18  162.92   12.06
   9   9 -18  160.56   11.59
  -9   9  18  131.31   11.57
   9  -9 -19  121.06    9.48
   9   9 -19  116.97    9.19
  -9   9  19  106.15    9.18
   9   9 -20 1221.41   79.90
   9  -9 -20 1369.22   80.24
  -9   9  20 1158.70   79.86
   9   9 -21    4.71    1.60
   9  -9 -21    4.96    1.53
   9   9 -22 1854.96  116.60
   9   9 -22 1806.26  116.82
   9   9 -23   69.58    5.91
   9   9 -23   73.30    6.12
   9   9 -24  510.78   33.51
   9   9 -25    2.36    0.95
  -9 -11 -14   48.17    3.66
  -9 -11 -13  283.26   18.09
  -9 -11 -13  267.91   18.01
  -9 -11 -12    3.85    0.94
  -9 -11 -12    2.70    0.89
  -9 -11 -11    1.81    0.86
  -9 -11 -11    1.96    1.01
  -9 -11 -10   12.60    1.84
   9  11  10   16.16    2.03
   9  11   9   59.84    4.82
  -9 -11  -9   50.76    4.64
  -9 -11  -8  122.97   10.05
   9  11   8  149.10   10.05
  -9 -11  -7   93.81    8.09
   9  11   7  111.26    8.00
  -9 -11  -6   60.92    5.82
   9  11   6   68.59    5.61
  -9  11  -5   83.60    7.92
  -9 -11  -5   95.70    7.74
   9  11   5   90.73    7.19
  -9 -11  -4  116.16    9.40
  -9  11  -4  110.80    9.73
   9  11   4  121.65    8.94
  -9  11  -3  108.18    9.79
  -9 -11  -3  121.79    9.66
   9  11   3  124.88    9.11
  -9  11  -2   20.29    3.28
  -9 -11  -2   18.87    3.00
   9  11   2   20.60    2.61
  -9  11  -1    6.84    2.21
  -9 -11  -1    6.96    2.08
   9  11   1   11.30    1.81
  -9  11   0   49.21    5.65
  -9 -11   0   66.04    5.99
  -9 -11   1  402.45   26.12
  -9  11   1  357.30   25.97
  -9  11   1  369.56   26.72
  -9  11   2  162.72   13.09
  -9  11   2  153.72   13.66
  -9  11   3  194.44   15.12
  -9 -11   3  208.71   15.23
  -9  11   3  228.80   16.31
  -9  11   4  295.55   19.33
  -9 -11   4  284.83   18.65
  -9  11   4  235.09   18.30
  -9  11   4  237.96   19.22
  -9 -11   5  477.29   33.50
  -9  11   5  554.07   34.57
  -9  11   5  497.54   34.68
  -9  11   6  112.96    9.35
  -9  11   6  103.34    9.53
  -9  11   7    1.13    1.48
   9  11  -7    2.12    0.82
  -9  11   8    3.88    2.20
   9  11  -8    1.22    0.89
  -9  11   8    0.49    1.40
  -9  11   9    4.89    1.75
  -9  11   9    5.82    1.98
   9  11  -9    2.54    1.07
   9  11 -10    8.83    1.55
  -9  11  10    5.29    1.95
  -9  11  10    5.32    1.92
  -9  11  11   20.47    3.44
  -9  11  11   20.70    3.20
   9  11 -11   22.10    2.61
  -9  11  12   33.15    4.20
  -9  11  12   36.29    4.36
   9  11 -12   34.83    3.52
  -9  11  13  659.00   39.48
   9  11 -13  570.37   38.19
   9 -11 -13  539.72   39.06
  -9  11  13  599.94   39.44
  -9  11  14  421.30   28.16
   9  11 -14  422.94   27.26
   9  11 -14  406.29   27.58
   9 -11 -14  423.46   28.21
  -9  11  14  379.13   28.06
  -9  11  15 2093.92  122.64
   9  11 -15 1853.25  121.56
   9 -11 -15 1872.16  122.41
  -9  11  15 1906.14  122.51
  -9  11  16  473.85   31.65
   9  11 -16  448.68   30.86
   9 -11 -16  494.23   31.71
  -9  11  16  488.11   31.77
  -9  11  17  873.06   55.01
   9  11 -17  804.12   54.23
   9 -11 -17  873.38   54.92
  -9  11  17  859.54   54.98
   9  11 -18  132.92    9.73
  -9  11  18  144.01   10.36
   9 -11 -18  140.63   10.20
   9 -11 -18  130.23    9.85
  -9  11  18  146.76   10.37
   9  11 -19  133.88    4.27
   9 -11 -19  137.17    4.93
   9  11 -20    9.64    1.35
   9  11 -20    7.96    1.50
   9  11 -21  207.49   14.19
   9  11 -21  227.28   14.59
   9  11 -22   41.73    3.41
  -9 -13  -8    4.35    0.76
  -9 -13  -7  306.58   19.95
  -9 -13  -6   24.88    2.38
   9  13   5  243.94   16.41
  -9 -13  -5  271.16   16.88
   9  13   4   47.27    3.61
  -9 -13  -4   47.10    3.95
   9  13   3  234.16   15.25
  -9 -13  -3  226.85   15.57
   9  13   2    2.12    0.75
  -9 -13  -2    1.87    0.96
   9  13   1  202.99   13.40
  -9 -13  -1  194.22   13.62
  -9 -13   0   94.34    6.92
   9  13   0   89.27    6.66
   9  13  -1  444.00   28.46
  -9 -13   1  430.69   28.56
  -9 -13   2    6.99    1.36
   9  13  -2    8.93    1.41
   9  13  -3   34.49    3.18
   9  13  -4    6.60    1.26
   9 -13  -4    5.74    1.69
   9 -13  -5  302.26   21.36
   9  13  -5  320.88   20.80
  -9  13   6    0.36    1.43
   9  13  -6    3.68    1.03
   9 -13  -6    3.52    1.57
   9  13  -7  333.39   22.14
   9 -13  -7  339.99   22.77
  -9  13   7  333.62   22.93
   9 -13  -8  188.43   13.39
   9  13  -8  178.48   12.77
  -9  13   8  201.78   13.68
   9 -13  -9  909.83   59.04
   9  13  -9  905.18   58.48
  -9  13   9  939.58   59.25
   9  13 -10   24.12    2.49
   9 -13 -10   27.34    3.01
  -9  13  10   24.76    3.04
   9 -13 -11  671.14   43.57
   9 -13 -14    1.68    0.83
   9 -13 -14    1.04    0.76
   9 -13 -15   44.11    3.59
 -10   0 -24  523.57   33.94
 -10   0 -23   10.29    1.88
 -10   0 -22  998.43   64.49
 -10   0 -21    8.10    2.33
 -10   0 -20  888.46   58.32
 -10   0 -19    3.14    2.34
 -10   0 -18  103.50    9.64
 -10   0 -18  118.30    9.90
 -10   0 -17   -2.32    3.32
 -10   0 -17    0.61    2.08
 -10   0 -17   -0.59    1.70
 -10   0 -16  164.89   13.26
 -10   0 -16  129.10   18.47
 -10   0 -16  173.03   13.31
 -10   0 -16  153.32   11.77
 -10   0 -15   -2.41    2.82
 -10   0 -15    1.28    2.05
 -10   0 -15    0.63    1.88
 -10   0 -15   -0.36    1.24
 -10   0 -14  172.54   14.29
 -10   0 -14  171.00   13.86
 -10   0 -14  153.24   20.38
 -10   0 -14  187.65   14.43
 -10   0 -14  177.91   12.99
 -10   0 -13   -0.62    2.49
 -10   0 -13   -0.54    1.54
 -10   0 -13   -1.25    2.36
 -10   0 -13    3.23    1.29
 -10   0 -13    2.35    4.35
 -10   0 -12   93.63    8.15
 -10   0 -12   72.21    7.24
 -10   0 -12   72.65    7.63
 -10   0 -12   90.81    6.82
 -10   0 -12   72.22    6.11
 -10   0 -11    3.30    1.84
 -10   0 -11   10.85    2.51
 -10   0 -11    3.37    1.33
 -10   0 -11    3.01    1.18
 -10   0 -11    8.65    4.74
 -10   0 -10 1682.61  115.35
 -10   0 -10 1809.82  114.95
 -10   0 -10 1922.94  124.22
 -10   0 -10 1858.51  114.37
 -10   0 -10 1779.02  113.87
 -10   0  -9    2.80    1.71
 -10   0  -9    7.50    2.35
 -10   0  -9    4.60    1.55
 -10   0  -9    4.35    1.32
 -10   0  -9    3.82    4.75
 -10   0  -8  426.85   29.70
 -10   0  -8  432.69   29.21
 -10   0  -8  468.20   36.42
 -10   0  -7    3.73    1.42
 -10   0  -7    2.57    1.47
 -10   0  -7    4.96    3.87
 -10   0  -6 1738.38  117.34
 -10   0  -5   -1.44    2.92
 -10   0  -4   69.80    9.73
 -10   0  -3    2.65    3.10
 -10   0  -2  327.06   22.09
 -10   0  -2  389.10   28.26
 -10   0  -1    1.17    0.84
 -10   0  -1    0.55    1.25
 -10   0  -1    1.29    2.60
 -10   0   0  283.24   19.18
 -10   0   0  297.83   19.69
 -10   0   0  306.30   24.68
 -10   0   1    3.37    1.36
 -10   0   1    7.67    3.67
 -10   0   2 2155.52  145.38
  10   0  -2 2258.99  144.96
  10   0  -3    9.50    3.21
 -10   0   3   10.20    3.03
 -10   0   4 3912.02  244.36
  10   0  -4 3717.60  244.93
 -10   0   5    6.34    2.29
  10   0  -5    3.89    1.99
 -10   0   6  660.31   45.43
 -10   0   7    0.72    1.57
  10   0  -8 1595.64  101.51
 -10   0   8 1653.88  104.77
  10   0  -9    1.66    0.84
 -10   0   9    4.32    2.38
  10   0 -10  938.88   59.60
 -10   0  10  884.11   61.78
  10   0 -11    1.94    1.16
 -10   0  11    0.79    1.73
  10   0 -12 5292.98  339.57
 -10   0  12 5538.70  341.88
 -10   0  13   -0.91    2.00
  10   0 -13    1.64    1.35
 -10   0  14  560.76   40.39
 -10   0  15    1.08    2.00
 -10   0  16   50.52    7.67
  10   0 -16   48.31    4.77
  10   0 -16   54.43    7.83
 -10   0  17    1.27    2.10
  10   0 -17   -1.28    1.84
  10   0 -17    3.29    1.36
 -10   0  18   34.14    6.40
  10   0 -18   32.26    3.72
  10   0 -18   27.63    6.15
  10   0 -19    1.48    2.45
  10   0 -19    2.47    1.52
 -10   0  19   -1.46    2.70
  10   0 -20  245.87   22.81
 -10   0  20  248.04   22.75
  10   0 -20  245.90   17.78
 -10   0  21    3.27    3.31
  10   0 -21    3.33    3.37
  10   0 -21    0.89    1.33
 -10   0  22 2254.11  164.08
  10   0 -22 2571.26  158.28
  10   0 -22 2419.87  164.86
 -10   0  23   -1.76    3.85
  10   0 -23    3.74    1.69
 -10   0  24   87.92   12.84
  10   0 -24  111.49    9.17
 -10   0  25    3.60    3.94
  10   0 -25    1.41    1.46
  10   0 -25   -3.89    3.94
  10   0 -26    3.71    1.69
  10   0 -27    0.89    1.51
  10   0 -28  560.52   37.44
  10   0 -29    1.17    1.71
  10   0 -30   35.00    4.05
  10   0 -31    0.67    1.11
  10   0 -32  268.00   18.37
  10   0 -33    1.71    0.91
 -10  -2 -24   19.24    2.09
 -10   2 -24   26.25    2.40
 -10  -2 -23    7.39    1.44
 -10   2 -23   11.14    1.79
 -10  -2 -22  160.81   11.87
 -10   2 -22  173.59   12.24
 -10  -2 -21   33.15    3.58
 -10   2 -21   34.60    3.94
 -10  -2 -20    7.07    1.87
 -10   2 -20   13.79    2.61
 -10  -2 -19    4.89    1.72
 -10   2 -19    9.74    2.55
 -10  -2 -19    4.61    1.43
 -10  -2 -18  336.41   24.10
 -10   2 -18  324.40   24.62
 -10  -2 -18  359.54   23.48
 -10  -2 -17  291.12   24.28
 -10   2 -17  428.11   26.06
 -10  -2 -17  342.17   24.82
 -10   2 -17  392.13   24.91
 -10  -2 -17  336.08   23.84
 -10  -2 -16 1139.07   76.10
 -10   2 -16 1162.75   76.92
 -10  -2 -16 1215.19   76.44
 -10  -2 -16 1233.28   75.40
 -10   2 -16 1134.44   75.89
 -10  -2 -16 1176.40   85.33
 -10   2 -16  941.00   82.07
 -10  -2 -15  279.72   23.57
 -10   2 -15  435.38   25.70
 -10   2 -15  382.72   24.21
 -10  -2 -15  304.99   23.89
 -10  -2 -15  322.31   24.06
 -10  -2 -15  327.30   23.13
 -10  -2 -15  358.58   32.45
 -10   2 -15  333.30   30.91
 -10  -2 -14 1479.32   99.78
 -10   2 -14 1505.63  100.59
 -10  -2 -14 1588.71  100.12
 -10  -2 -14 1669.47  100.37
 -10   2 -14 1476.16   99.59
 -10  -2 -14 1588.43   99.11
 -10  -2 -14 1577.68  109.46
 -10   2 -14 1250.68  105.85
 -10  -2 -14 1563.90   98.28
 -10  -2 -13  289.47   20.92
 -10  -2 -13  276.81   21.59
 -10   2 -13  371.39   23.33
 -10  -2 -13  292.69   21.80
 -10  -2 -13  311.22   22.11
 -10   2 -13  327.23   21.81
 -10   2 -13  304.66   28.21
 -10  -2 -13  284.42   29.06
 -10  -2 -13  280.16   20.27
 -10  -2 -12   25.63    3.78
 -10  -2 -12   19.23    3.55
 -10   2 -12   21.39    4.07
 -10  -2 -12   26.58    3.95
 -10   2 -12   21.37    3.49
 -10  -2 -12   23.09    3.30
 -10  -2 -12   27.54    3.02
 -10  -2 -12   36.13    8.48
 -10   2 -12   23.33    6.41
 -10  -2 -11   54.17    6.09
 -10   2 -11   66.68    7.20
 -10  -2 -11   62.09    6.28
 -10  -2 -11   61.50    6.42
 -10   2 -11   62.04    6.07
 -10  -2 -11   58.55    5.30
 -10  -2 -11   67.29   11.26
 -10   2 -11   46.54    9.35
 -10  -2 -10    8.55    1.80
 -10  -2 -10    9.52    2.32
 -10  -2 -10   15.43    2.81
 -10   2 -10   14.96    3.20
 -10   2 -10    9.12    1.56
 -10  -2 -10   16.42    6.15
 -10   2 -10   19.32    5.47
 -10  -2  -9   41.10    4.94
 -10   2  -9   46.05    5.47
 -10  -2  -9   44.73    4.67
 -10   2  -9   31.58    4.25
 -10   2  -9   42.25    3.79
 -10  -2  -9   48.14    4.32
 -10  -2  -9   42.66    8.59
 -10   2  -9   49.83    8.76
 -10   2  -8    0.74    1.11
 -10  -2  -8    3.48    1.66
 -10   2  -8    4.87    2.10
 -10   2  -8    4.28    1.62
 -10  -2  -8    2.19    1.29
 -10   2  -8    3.29    0.94
 -10  -2  -8    5.64    1.52
 -10  -2  -8    3.62    3.35
 -10   2  -8    1.55    2.57
 -10   2  -8    0.79    0.86
 -10   2  -7   39.40    3.75
 -10  -2  -7   21.85    3.37
 -10   2  -7   32.01    4.12
 -10   2  -7   31.93    3.68
 -10   2  -7   29.86    3.11
 -10  -2  -7   33.07    3.59
 -10  -2  -7   28.80    3.31
 -10  -2  -7   36.97    7.20
 -10   2  -7   24.69    5.70
 -10   2  -6 1045.23   69.03
 -10  -2  -6 1125.49   76.11
 -10   2  -6 1051.20   74.67
 -10   2  -6 1033.08   68.60
 -10  -2  -6 1167.65   69.35
 -10   2  -5  325.35   21.15
 -10  -2  -5  262.56   25.70
 -10   2  -5  301.47   25.74
 -10  -2  -4  832.18   51.03
 -10   2  -4  761.90   50.78
 -10  -2  -4  813.26   56.96
 -10   2  -4  716.09   55.36
 -10  -2  -3 1225.18   81.35
 -10   2  -3 1302.21   81.28
 -10  -2  -3 1311.07   87.11
 -10   2  -3 1347.47   86.76
 -10  -2  -2  672.20   44.12
 -10  -2  -2  759.91   49.98
 -10   2  -2  662.50   48.70
 -10  -2  -1   76.15    6.11
 -10  -2  -1   72.13    9.57
 -10  -2   0  109.39    7.46
 -10   2   0   80.60    7.33
 -10  -2   0  112.06    7.68
 -10  -2   0  110.67   11.79
 -10   2   0   77.90   10.69
 -10   2   1  734.32   48.58
 -10  -2   1  758.56   48.58
 -10  -2   1  825.95   54.22
 -10   2   1  753.10   53.65
  10  -2  -2   49.84    7.74
 -10   2   2   51.72    5.04
 -10  -2   2   71.54    5.22
 -10  -2   2   59.42    8.39
 -10   2   2   51.35    8.24
  10   2  -2   80.55    8.46
 -10  -2   3  341.37   27.16
 -10   2   3  286.52   26.83
  10  -2  -3  356.90   27.01
  10   2  -3  380.04   26.69
 -10  -2   4  409.98   29.70
 -10   2   4  379.49   29.77
  10  -2  -4  385.28   30.05
  10   2  -4  432.56   30.27
 -10  -2   5 1233.78   79.37
 -10   2   5 1221.34   79.90
  10   2  -5 1138.74   76.99
  10  -2  -5 1261.86   80.33
  10   2  -5 1212.74   79.96
 -10  -2   6   24.75    4.14
 -10   2   6   21.83    4.09
  10   2  -6   10.96    2.05
  10   2  -7  131.93   10.19
 -10  -2   7  155.11   12.40
 -10   2   7  143.03   12.67
 -10  -2   8   90.57    8.80
 -10   2   8   84.02    8.99
 -10  -2   9  582.71   39.38
 -10   2   9  548.81   39.70
 -10  -2  10   45.34    5.77
 -10   2  10   43.38    5.98
  10  -2 -11  710.90   49.15
 -10  -2  11  769.91   50.25
 -10   2  11  726.34   50.65
  10  -2 -12  619.19   44.03
 -10  -2  12  696.21   45.34
 -10   2  12  639.89   45.62
  10  -2 -13  860.40   60.35
 -10  -2  13  920.37   61.32
 -10   2  13  943.46   62.30
  10  -2 -14  412.49   29.87
 -10  -2  14  428.66   30.77
 -10   2  14  380.26   30.86
 -10  -2  15 1243.62   79.85
 -10   2  15 1127.58   80.20
  10  -2 -15 1123.71   78.61
  10   2 -15 1240.43   80.42
  10  -2 -15 1270.99   79.99
  10  -2 -15 1171.76   75.61
  10   2 -15 1161.58   75.79
 -10  -2  16  491.40   35.30
 -10   2  16  446.74   35.71
  10  -2 -16  428.32   33.97
  10   2 -16  422.03   34.93
  10  -2 -16  506.68   35.50
  10  -2 -16  475.16   31.00
  10   2 -16  469.13   31.18
 -10  -2  17  174.46   15.33
 -10   2  17  128.42   14.56
  10  -2 -17  138.49   13.73
  10   2 -17  135.50   14.49
  10  -2 -17  133.37   14.00
  10  -2 -17  139.79   10.65
  10   2 -17  142.31   10.88
  10   2 -17  142.41   10.35
 -10  -2  18  146.06   14.88
 -10   2  18  127.47   15.30
  10  -2 -18  129.73   14.00
  10   2 -18  151.98   10.80
  10  -2 -18  147.56   15.00
  10   2 -18  130.08   14.92
  10  -2 -18  152.43   11.15
  10   2 -18  148.96   11.34
 -10  -2  19   92.02   11.28
 -10   2  19   93.49   12.16
  10  -2 -19  101.41   11.20
  10   2 -19   81.31    7.01
  10  -2 -19  111.62   12.02
  10   2 -19   92.08    7.73
  10  -2 -19   85.88    7.42
  10   2 -19   70.75   10.76
 -10   2  20   22.57    5.84
  10   2 -20   15.40    2.38
  10   2 -20   11.41    4.39
  10  -2 -20   18.98    5.09
  10  -2 -20   18.83    4.71
  10  -2 -20   19.74    2.86
  10   2 -20   13.20    2.64
  10  -2 -21    5.71    2.67
 -10   2  21    9.10    4.00
  10   2 -21    7.53    1.62
 -10  -2  21    6.21    3.17
  10   2 -21    1.71    2.48
  10  -2 -21    1.54    3.14
  10  -2 -21    7.35    2.04
  10   2 -21    8.18    2.19
 -10  -2  22   16.14    5.41
  10   2 -22    9.95    2.12
  10  -2 -22   16.75    2.63
  10   2 -22   16.28    2.65
  10   2 -23   17.05    2.56
 -10  -2  23   24.79    6.04
 -10   2  23   19.27    6.25
  10  -2 -23   11.90    2.48
  10   2 -23   16.97    2.87
 -10   2  24    3.90    3.95
  10   2 -24    1.42    1.71
  10   2 -24    5.12    1.51
 -10  -2  24    3.35    3.10
  10  -2 -24    3.00    1.59
  10   2 -24   -3.89    3.94
  10  -2 -24   -1.75    3.55
  10  -2 -25  125.68    9.72
  10   2 -25  120.10    9.29
 -10  -2  25  110.51   14.40
 -10   2  25   81.69   13.83
  10   2 -25  130.69   16.19
  10  -2 -25  110.97   14.75
  10   2 -25  117.59    9.79
  10   2 -26  877.99   56.16
  10   2 -26  828.53   55.44
  10  -2 -26  865.13   55.92
  10   2 -27  322.97   22.44
  10  -2 -27  326.55   22.81
  10   2 -27  345.86   23.20
  10   2 -28  587.27   40.77
  10   2 -28  630.45   41.53
  10  -2 -28  682.37   41.50
  10  -2 -29  588.28   39.78
  10   2 -29  614.94   40.06
  10   2 -29  616.93   39.95
  10  -2 -29  596.19   39.70
  10  -2 -30  802.82   49.45
  10   2 -30  715.44   49.38
  10  -2 -31   22.24    2.80
  10   2 -31   24.06    2.93
  10  -2 -32    6.91    1.47
  10   2 -32    7.70    1.57
 -10  -4 -22    6.49    1.13
 -10   4 -22    1.95    1.17
 -10  -4 -21 1512.86   87.68
 -10  -4 -21 1215.08   87.52
 -10   4 -21 1465.10   88.16
 -10  -4 -20    3.91    1.51
 -10   4 -20    2.46    1.48
 -10  -4 -19  209.52   16.21
 -10   4 -19  254.23   17.14
 -10  -4 -19  248.77   16.38
 -10  -4 -18    0.36    1.31
 -10   4 -18    1.97    1.87
 -10  -4 -18    0.67    1.21
 -10  -4 -17   34.11    4.27
 -10   4 -17   51.20    5.51
 -10  -4 -17   43.60    4.42
 -10  -4 -16   41.57    4.73
 -10   4 -16   46.28    5.57
 -10  -4 -16   49.77    4.90
 -10  -4 -16   39.24    4.63
 -10  -4 -16   43.58    4.08
 -10  -4 -15  127.73   11.36
 -10   4 -15  166.66   12.82
 -10  -4 -15  143.05   11.85
 -10  -4 -15  149.53   11.59
 -10  -4 -15  145.42   10.79
 -10  -4 -15  168.75   11.73
 -10   4 -15  137.50   11.13
 -10  -4 -14   16.75    5.81
 -10  -4 -14   13.65    2.82
 -10   4 -14   13.50    3.31
 -10  -4 -14   13.50    2.98
 -10   4 -14   13.19    2.77
 -10   4 -14   12.22    2.79
 -10   4 -14   10.98    2.20
 -10  -4 -14   21.05    3.07
 -10  -4 -14   15.83    2.37
 -10  -4 -13  402.95   30.24
 -10   4 -13  501.10   31.91
 -10  -4 -13  461.80   30.98
 -10   4 -13  433.08   30.60
 -10  -4 -13  419.04   30.28
 -10   4 -13  430.99   29.93
 -10  -4 -13  405.53   36.44
 -10   4 -13  449.66   35.77
 -10  -4 -13  436.16   29.79
 -10   4 -13  526.33   31.56
 -10  -4 -12    9.32    4.88
 -10   4 -12    1.54    2.56
 -10  -4 -12    4.47    2.23
 -10   4 -12   -0.68    2.47
 -10  -4 -12    8.34    2.57
 -10   4 -12    8.98    2.81
 -10   4 -12    4.60    2.04
 -10  -4 -12    8.30    2.54
 -10   4 -12    0.40    1.59
 -10  -4 -12    6.24    1.84
 -10  -4 -11 1105.97   73.71
 -10   4 -11 1266.16   75.14
 -10  -4 -11 1180.12   74.16
 -10  -4 -11 1162.89   73.81
 -10   4 -11 1076.75   73.66
 -10  -4 -11 1076.17   80.47
 -10  -4 -11 1137.20   73.62
 -10   4 -11 1065.97   78.79
 -10   4 -11 1086.34   73.33
 -10   4 -11 1064.68   73.13
 -10   4 -11 1267.17   74.56
 -10  -4 -11 1140.32   73.32
 -10  -4 -10    2.37    1.99
 -10   4 -10   11.42    3.34
 -10  -4 -10   12.85    2.57
 -10   4 -10    6.55    2.12
 -10  -4 -10    9.33    2.34
 -10   4 -10    7.19    1.99
 -10  -4 -10    6.32    2.11
 -10   4 -10    5.19    1.75
 -10  -4 -10    4.52    1.70
 -10   4 -10    7.36    2.37
 -10  -4 -10    5.33    4.42
 -10   4 -10   -1.44    3.18
 -10  -4  -9 2224.94  141.40
 -10   4  -9 2470.43  142.60
 -10   4  -9 2089.90  141.22
 -10  -4  -9 2386.99  146.73
 -10  -4  -9 2280.94  141.45
 -10   4  -9 2115.32  140.80
 -10  -4  -9 2210.21  148.17
 -10   4  -9 2052.72  140.82
 -10   4  -9 2135.13  146.20
 -10  -4  -9 2260.92  141.21
 -10   4  -9 2388.56  141.77
 -10  -4  -9 2216.90  141.34
 -10  -4  -8   10.27    2.44
 -10   4  -8   17.23    3.38
 -10   4  -8   15.25    2.61
 -10   4  -8    9.92    2.18
 -10   4  -8   10.78    2.06
 -10  -4  -8    5.77    1.95
 -10  -4  -8    8.07    4.27
 -10   4  -8   18.17    4.60
 -10  -4  -8    9.87    3.59
 -10  -4  -7  847.02   54.89
 -10   4  -7  900.14   55.69
 -10   4  -7  796.14   54.68
 -10  -4  -7  895.59   59.10
 -10   4  -7  859.75   59.36
 -10   4  -7  821.77   54.43
 -10  -4  -7  871.92   55.01
 -10   4  -7  799.27   54.73
 -10  -4  -7  872.21   60.96
 -10  -4  -6  153.71   11.64
 -10   4  -6  175.19   12.40
 -10  -4  -6  169.35   11.95
 -10   4  -6  125.45   11.23
 -10  -4  -6  156.82   16.21
 -10  -4  -6  162.16   14.79
 -10   4  -6  145.19   14.69
 -10   4  -6  155.17   11.26
 -10   4  -6  161.21   11.59
 -10  -4  -5   98.65    7.62
 -10   4  -5   98.52    7.41
 -10   4  -5   87.11    7.38
 -10   4  -5   82.86    7.34
 -10  -4  -5   89.71    9.88
 -10   4  -5   73.57    9.73
 -10  -4  -5  110.94    8.11
 -10  -4  -5   75.60   10.60
 -10  -4  -4   14.06    2.19
 -10   4  -4   11.30    1.81
 -10  -4  -4   11.04    2.91
 -10  -4  -4   11.11    3.61
 -10   4  -4   11.19    3.23
 -10  -4  -3   24.30    2.98
 -10   4  -3   29.88    2.97
 -10  -4  -3   30.09    5.58
 -10   4  -3   18.35    4.25
 -10  -4  -3   23.25    3.23
 -10  -4  -2    3.77    1.24
 -10   4  -2    7.05    1.34
 -10  -4  -2    2.19    1.58
 -10   4  -2    0.93    1.55
 -10  -4  -2    2.00    1.37
 -10  -4  -1   60.96    5.37
  10  -4   1   60.18    8.78
  10   4   1   59.45    7.73
 -10   4  -1   59.01    5.56
 -10  -4  -1   80.09    8.96
 -10   4  -1   61.24    7.69
 -10   4  -1   66.17    5.10
 -10  -4  -1   67.29    6.73
 -10   4   0    1.40    1.09
  10  -4   0   -1.13    1.87
  10   4   0    0.91    1.50
 -10   4   0    1.95    1.23
 -10  -4   0    2.48    1.23
 -10   4   0    0.73    0.73
 -10  -4   0    1.03    2.42
 -10   4   0    5.53    2.29
 -10   4   1  719.22   51.67
 -10  -4   1  822.21   51.85
 -10  -4   1  933.55   56.92
 -10   4   1  812.01   55.82
 -10   4   1  748.50   52.32
 -10  -4   1  901.47   53.17
  10  -4  -1  817.47   56.09
  10   4  -1  864.62   55.57
 -10   4   1  864.83   52.16
  10  -4  -2   11.31    3.19
  10   4  -2   10.15    2.88
 -10   4   2   10.96    1.75
 -10   4   2    9.94    1.61
 -10  -4   2   13.29    1.89
 -10   4   2   12.23    2.26
 -10  -4   2    9.28    1.81
 -10  -4   2   11.40    3.60
 -10   4   2    9.01    3.38
 -10   4   3   47.21    7.29
 -10   4   3   53.67    4.63
 -10  -4   3   62.25    4.72
 -10   4   3   48.89    5.03
 -10  -4   3   63.39    7.96
 -10  -4   3   54.36    4.90
  10   4  -3   48.25    6.16
  10   4  -3   63.47    7.16
 -10   4   3   63.98    4.84
  10  -4  -3   45.29    6.50
 -10   4   4    7.98    1.52
 -10  -4   4    7.42    1.47
  10   4  -4   10.01    2.40
 -10  -4   4   10.73    3.70
 -10   4   4    6.89    3.33
 -10   4   4    9.76    1.59
 -10  -4   5  275.96   17.72
 -10   4   5  251.67   17.79
 -10  -4   5  245.94   21.54
 -10   4   5  234.21   21.73
  10   4  -5  227.30   19.44
 -10   4   5  284.46   17.77
  10   4  -6   44.08    5.51
 -10  -4   6   51.70    6.36
 -10   4   6   46.91    6.72
 -10   4   6   46.15    4.02
 -10   4   7   45.27    6.33
  10   4  -7   30.37    4.77
 -10  -4   7   35.42    5.42
 -10   4   7   48.20    3.81
 -10  -4   8    1.47    1.62
 -10   4   8    1.83    2.01
  10   4  -8    3.87    1.69
 -10   4   8    2.29    0.92
 -10   4   9   77.99    5.83
 -10  -4   9   89.97    8.43
 -10   4  10   57.41    7.74
 -10  -4  10   65.02    7.40
 -10   4  10   71.71    5.45
 -10  -4  11  560.74   39.81
 -10   4  11  543.68   40.66
 -10   4  11  577.09   36.90
 -10   4  12   16.58    4.25
 -10   4  12   21.76    2.44
  10   4 -13   30.65    5.33
  10  -4 -13   34.65    5.27
 -10   4  13   32.28    3.22
 -10  -4  13   40.17    5.75
 -10   4  13   34.29    5.94
  10  -4 -14   21.50    4.66
  10   4 -14   17.08    2.32
  10   4 -14   22.47    4.65
  10  -4 -14   16.35    3.69
  10  -4 -14   22.92    2.50
  10   4 -14   14.90    2.39
 -10  -4  14   12.25    3.40
 -10   4  14   17.93    4.66
  10  -4 -15   94.88   10.35
  10   4 -15   99.03   11.12
  10  -4 -15   73.27   10.61
 -10   4  15  115.18   12.22
  10  -4 -15  102.00    7.71
  10   4 -15   94.44    7.90
 -10  -4  15  133.88   11.82
  10   4 -15   97.69    7.72
  10  -4 -16   12.10    3.74
  10   4 -16    9.00    1.89
  10   4 -16   11.16    3.75
  10  -4 -16   14.69    3.53
  10  -4 -16    9.75    1.79
  10   4 -16   12.21    2.12
 -10  -4  16    5.54    2.67
 -10   4  16   11.23    3.90
  10  -4 -17   18.62    4.82
  10   4 -17   14.75    2.37
  10   4 -17   13.49    2.30
 -10  -4  17   15.61    4.19
  10   4 -17   15.83    4.58
  10  -4 -17    7.84    3.19
 -10   4  17   18.13    5.07
  10  -4 -17   11.81    2.03
  10   4 -17   17.21    2.48
  10  -4 -18   98.66   12.03
  10   4 -18  133.31    9.65
  10  -4 -18   93.89   12.68
  10   4 -18  141.27    9.74
 -10  -4  18  125.23   13.42
  10   4 -18  117.56   13.48
  10  -4 -18  111.46    9.07
 -10   4  18   93.85   13.12
  10   4 -19  968.71   61.34
  10  -4 -19  917.05   60.95
  10  -4 -19  949.51   65.85
 -10  -4  19 1060.13   67.30
  10  -4 -19  830.81   66.68
  10   4 -19  970.92   61.36
 -10   4  19  910.80   67.86
  10   4 -19  887.48   66.54
  10   4 -20   -0.82    1.39
  10  -4 -20    1.67    2.39
 -10  -4  20    2.91    2.69
  10  -4 -20    1.73    1.40
 -10   4  20   -1.79    3.31
  10   4 -20   -0.40    1.29
  10   4 -21 1295.85   81.68
  10  -4 -21 1222.69   81.23
  10  -4 -21 1161.36   88.00
 -10  -4  21 1361.46   88.17
 -10   4  21 1062.66   87.88
  10   4 -21 1350.00   81.81
  10   4 -22   64.65    5.69
  10  -4 -22   40.99    8.39
  10   4 -22   56.61    5.47
  10  -4 -22   52.80    5.14
  10   4 -22   54.88    5.61
 -10  -4  22   56.21    9.58
 -10   4  22   32.06    8.23
  10   4 -22   78.45   10.64
  10   4 -23 2032.32  124.81
  10  -4 -23 1699.04  131.17
  10   4 -23 1962.82  124.79
 -10  -4  23 2106.19  131.85
 -10   4  23 1677.95  131.33
  10   4 -23 1981.76  125.04
  10   4 -23 1979.28  131.92
  10  -4 -23 1892.88  130.38
  10  -4 -23 1952.19  124.41
  10  -4 -24    1.07    1.15
  10   4 -24    3.82    1.61
  10   4 -24    2.34    1.55
  10   4 -24    2.05    1.52
  10   4 -25  358.86   24.12
  10  -4 -25  341.80   23.69
  10   4 -25  364.58   24.08
  10   4 -25  330.02   24.19
  10   4 -26   26.31    3.46
  10  -4 -26   30.91    3.41
  10   4 -26   29.42    3.58
  10   4 -26   28.47    3.75
  10   4 -27   19.97    2.78
  10   4 -27   21.84    2.94
  10  -4 -27   20.28    2.72
  10   4 -27   20.17    2.96
  10  -4 -28    1.78    1.19
  10   4 -28    2.98    1.21
  10   4 -28    4.18    1.39
  10  -4 -29    1.05    1.51
  10   4 -29    4.61    1.61
  10   4 -29    4.94    1.41
  10  -4 -30   -0.21    0.85
  10   4 -30    1.15    0.89
  10   4 -30    0.63    0.88
 -10  -6 -21  235.46   15.44
 -10  -6 -20    9.66    1.41
  10   6  20    6.74    1.35
 -10  -6 -19    2.92    1.12
  10   6  19    4.48    1.29
 -10  -6 -18  154.18   11.14
 -10  -6 -17    0.19    0.43
 -10  -6 -17  531.13   10.92
 -10  -6 -16  759.03   30.68
 -10   6 -16  305.24   29.54
 -10  -6 -15  324.60   19.96
 -10   6 -15  256.75   19.80
 -10  -6 -14  508.81   33.90
 -10  -6 -14  497.83   33.48
 -10   6 -14  505.99   33.68
 -10   6 -13  439.80   29.27
 -10   6 -13  380.64   28.41
 -10  -6 -13  416.04   28.18
 -10  -6 -13  424.41   27.92
 -10   6 -13  398.62   27.87
 -10   6 -12  230.74   17.08
 -10  -6 -12  222.43   16.63
 -10   6 -12  243.04   16.68
 -10  -6 -12  202.83   16.25
 -10   6 -12  254.47   17.85
 -10   6 -12  224.89   16.47
 -10  -6 -11  306.27   19.95
 -10   6 -11  269.84   19.98
 -10  -6 -11  282.47   19.75
 -10   6 -11  249.89   19.28
 -10  -6 -11  265.44   19.51
 -10   6 -11  289.97   20.65
 -10   6 -11  272.56   19.46
 -10  -6 -10   24.76    3.59
 -10   6 -10   31.35    4.44
 -10   6 -10   30.24    4.13
 -10   6 -10   28.31    3.56
 -10  -6 -10   30.44    3.79
 -10  -6  -9   73.80    6.45
 -10   6  -9   65.61    6.42
 -10   6  -9   56.37    5.72
 -10   6  -9   62.80    6.62
 -10  -6  -9   62.59    6.18
 -10   6  -8    9.49    2.30
 -10   6  -8    4.69    1.79
 -10  -6  -8   11.12    3.56
 -10   6  -8    7.39    1.73
 -10  -6  -8    5.14    1.90
 -10   6  -7    1.32    1.15
 -10  -6  -7    3.52    2.38
 -10   6  -7    1.04    1.07
 -10   6  -7    1.49    1.54
 -10  -6  -7    1.41    1.35
 -10   6  -6   70.09    6.44
 -10   6  -6   59.71    6.06
 -10  -6  -6   70.92    8.70
 -10   6  -6   65.83    5.76
 -10  -6  -5  362.58   23.26
 -10   6  -5  308.41   23.28
 -10   6  -5  318.44   23.07
 -10  -6  -5  379.20   27.00
  10   6   5  356.38   26.75
 -10  -6  -4   73.65    6.44
 -10  -6  -4   70.56    8.59
 -10  -6  -4   82.40    7.12
  10   6   4   63.53    8.30
 -10  -6  -3 1273.95   83.32
 -10  -6  -3 1284.58   86.31
 -10  -6  -3 1378.42   83.81
 -10  -6  -3 1271.19   83.93
  10   6   3 1271.01   86.24
 -10  -6  -2  414.37   30.43
 -10  -6  -2  389.12   27.75
 -10   6  -2  401.97   28.05
  10   6   2  444.83   32.49
 -10  -6  -2  465.99   28.38
 -10  -6  -2  432.56   28.56
  10   6   2  378.63   30.10
 -10  -6  -1   71.87    6.48
 -10  -6  -1   80.06    6.83
 -10   6  -1   98.40    7.11
 -10  -6  -1   88.82    8.77
  10   6   1   62.46    8.99
 -10  -6  -1   83.39    7.26
  10   6   1   83.79    6.36
 -10   6  -1   80.95    7.29
  10   6   1   62.61    7.88
 -10   6  -1   80.27    7.07
 -10  -6   0  117.03   10.93
  10   6   0  121.06   12.40
 -10  -6   0  114.75    9.34
 -10   6   0  124.89    9.38
  10   6   0  119.94    8.83
 -10   6   0  120.81    9.94
 -10  -6   0  119.74    9.74
 -10   6   0  134.91    9.87
  10   6  -1  732.38   53.26
 -10   6   1  697.56   50.14
 -10  -6   1  811.72   50.18
  10   6  -1  747.99   48.98
 -10   6   1  819.28   50.09
 -10   6   2    4.80    1.60
  10   6  -2    8.15    3.06
 -10   6   2    3.73    2.00
 -10  -6   2    4.65    1.74
  10   6  -2    7.82    1.28
 -10   6   3   36.09    4.45
  10   6  -3   41.78    6.10
 -10  -6   3   34.55    3.99
 -10   6   3   38.63    4.00
 -10   6   4    8.01    1.75
 -10   6   4    5.15    1.88
  10   6  -4    5.90    2.49
 -10  -6   4   12.05    2.01
  10   6  -5  792.15   56.06
 -10   6   5  819.06   52.81
  10   6  -6    4.92    2.45
 -10   6   6    2.70    1.35
  10   6  -7  354.26   29.01
 -10   6   7  397.92   26.11
 -10   6   8   24.89    3.13
 -10   6   9  288.56   24.49
 -10   6   9  346.55   22.52
 -10   6  10   83.39    9.31
  10   6 -10   87.14    8.61
 -10   6  10   88.83    7.24
  10   6 -11   75.31    7.65
 -10   6  11   52.83    7.51
 -10   6  11   67.30    5.88
 -10   6  12    5.88    2.63
 -10   6  12    9.46    1.98
  10   6 -13   36.99    4.09
 -10   6  13   44.15    4.33
 -10   6  13   30.68    5.68
  10   6 -14  108.62    8.75
 -10   6  14  108.66    8.75
  10  -6 -15  954.44   73.51
  10   6 -15 1091.17   66.33
 -10   6  15  972.08   66.08
  10  -6 -16  359.33   33.95
  10   6 -16  396.00   27.10
  10   6 -16  441.19   27.30
 -10   6  16  367.45   26.86
  10  -6 -17  235.44   16.78
  10  -6 -17  218.72   22.98
  10   6 -17  227.92   16.28
  10   6 -17  243.43   16.37
 -10   6  17  194.28   15.87
  10  -6 -18  233.06   24.87
  10   6 -18  267.04   18.28
  10  -6 -18  288.20   18.87
  10   6 -18  244.04   18.14
 -10   6  18  230.88   17.82
  10  -6 -19  402.45   36.97
  10   6 -19  416.49   29.39
  10  -6 -19  453.33   29.75
  10   6 -20   11.38    2.33
  10  -6 -20    6.64    2.02
  10  -6 -21  181.74   19.97
  10   6 -21  164.83   12.44
  10   6 -21  152.41   11.48
  10   6 -22    5.82    1.98
  10   6 -22    4.02    1.31
  10   6 -23  194.60   14.28
  10   6 -23  216.55   15.30
  10   6 -23  214.03   15.51
  10   6 -24   18.19    2.44
  10   6 -24   16.67    2.90
  10   6 -24   22.80    3.23
  10   6 -25   15.99    2.72
  10   6 -25   18.13    2.83
  10   6 -26  383.45   25.27
  10   6 -26  358.37   25.27
  10   6 -27  206.79   14.19
  10   6 -27  188.52   14.08
  10   6 -28  606.44   39.54
  10   6 -29  375.03   24.71
 -10  -8 -19   20.80    1.92
  10   8  17    3.42    1.14
 -10  -8 -16  318.09   21.19
 -10  -8 -16  298.45   20.72
  10   8  16  346.94   21.42
 -10  -8 -15   42.26    3.82
 -10  -8 -15   32.77    3.40
  10   8  15   36.49    3.75
 -10  -8 -14  261.17   18.28
 -10  -8 -14  262.61   18.07
  10   8  14  269.94   18.35
 -10  -8 -13    1.74    1.29
 -10  -8 -13   -0.32    0.97
  10   8  13    0.68    1.08
 -10   8 -12   30.92    4.27
 -10  -8 -12   33.07    3.71
 -10  -8 -12   35.50    3.79
  10   8  12   24.86    3.41
 -10  -8 -11    6.67    1.93
 -10   8 -11    8.60    1.84
 -10  -8 -11    5.95    1.89
 -10   8 -11    1.74    2.07
  10   8  11    5.86    1.78
 -10   8 -10 1190.36   75.03
 -10   8 -10 1088.49   73.58
 -10  -8 -10 1093.82   73.83
  10   8  10 1215.95   73.75
 -10   8  -9    4.16    2.46
 -10   8  -9    5.62    1.71
 -10  -8  -9   13.35    2.62
  10   8   9   11.61    2.14
 -10   8  -8  199.42   15.17
  10   8   8  187.14   13.97
  10   8   7    1.58    2.62
  10   8   7    1.10    1.18
  10   8   6    7.84    3.68
 -10  -8  -6    3.88    1.78
  10   8   6    6.12    1.58
  10   8   5    1.55    2.90
 -10   8  -5    9.85    2.52
 -10  -8  -5    6.86    2.23
  10   8   5    9.12    1.87
  10   8   4  194.62   19.61
 -10   8  -4  168.30   15.02
 -10  -8  -4  220.41   15.52
  10   8   4  221.71   14.67
 -10  -8  -3    2.64    1.27
 -10   8  -3    1.54    1.42
  10   8   3    7.45    3.70
 -10  -8  -3    4.59    1.70
 -10  -8  -3    1.47    1.69
  10   8   3    4.92    1.47
 -10  -8  -2   37.67    3.99
 -10  -8  -2   34.69    4.30
  10   8   2   30.61    6.41
 -10  -8  -2   46.78    4.96
 -10   8  -2   50.95    5.15
  10   8   2   40.24    4.04
 -10   8  -1    8.52    2.54
 -10  -8  -1    4.85    1.48
  10   8   1    7.13    3.13
 -10  -8  -1    2.32    1.38
 -10   8  -1    5.72    1.98
 -10  -8  -1    2.40    1.55
  10   8   1    2.42    1.17
 -10  -8   0  258.06   18.46
 -10  -8   0  266.81   18.78
 -10   8   0  270.23   19.76
 -10  -8   0  257.29   19.21
 -10   8   0  276.44   19.36
  10   8   0  267.21   18.35
  10   8   0  261.56   23.41
 -10   8   0  295.84   20.01
  10   8  -1   64.49    8.98
 -10  -8   1   60.94    5.96
 -10   8   1   51.38    6.05
 -10   8   1   55.37    5.70
  10   8  -1   69.71    5.31
 -10   8   1   51.09    5.94
 -10   8   2  174.55   12.88
  10   8  -2  173.99   16.93
 -10  -8   2  182.25   13.10
 -10   8   2  179.94   13.64
  10   8  -2  156.11   11.93
 -10   8   2  167.48   13.32
 -10   8   3   11.83    2.59
 -10   8   3    4.87    1.67
  10   8  -3    3.99    2.50
 -10  -8   3    5.97    1.88
 -10   8   3   13.72    2.83
 -10   8   4  244.36   17.85
  10   8  -4  253.57   22.17
 -10  -8   4  262.59   18.07
 -10   8   4  248.43   18.43
 -10   8   5    9.53    2.32
 -10   8   5    9.33    1.93
  10   8  -5    6.58    3.14
 -10  -8   5   12.80    2.26
 -10   8   6  293.63   20.92
 -10  -8   6  307.51   20.98
 -10   8   6  308.59   21.70
 -10   8   7    5.49    1.49
 -10   8   7   -0.50    1.71
 -10   8   8 1053.33   68.37
 -10   8   8 1072.80   69.33
 -10   8   9   15.01    2.93
 -10   8  10  371.54   26.04
 -10   8  11   23.40    3.52
  10   8 -12  143.21   10.82
 -10   8  12  132.66   11.18
  10   8 -13    7.45    1.93
 -10   8  13    7.24    2.23
  10   8 -14   21.65    3.19
  10   8 -14   21.77    3.03
 -10   8  14   20.64    3.36
  10   8 -15    5.19    1.75
  10  -8 -15    2.46    4.07
  10   8 -15    3.77    1.62
 -10   8  15    8.73    2.23
  10  -8 -16   12.23    5.46
  10   8 -16   17.64    2.87
  10  -8 -16   14.40    3.13
 -10   8  16   12.14    2.67
  10  -8 -17   12.48    2.80
  10   8 -17   14.18    2.58
  10   8 -17   15.06    2.62
 -10   8  17    7.86    2.13
  10   8 -18  183.56   13.74
  10   8 -18  204.15   13.91
  10  -8 -18  189.59   14.20
 -10   8  18  156.98   13.57
  10  -8 -19    6.90    2.26
 -10   8  19    4.38    1.73
  10  -8 -20  319.91   20.17
 -10   8  20  249.38   19.42
  10  -8 -21    4.71    1.62
  10  -8 -22   39.57    4.07
  10   8 -23   10.82    2.08
  10   8 -23    9.45    2.08
  10   8 -24   76.71    6.41
  10   8 -24   75.79    6.58
  10   8 -25    3.08    1.21
  10   8 -25    1.20    1.06
  10   8 -26   11.26    1.75
  10   8 -26    9.23    1.59
  10   8 -27    1.36    0.90
  10   8 -27    2.51    0.84
 -10 -10 -16  428.50   27.42
 -10 -10 -15   60.92    4.55
 -10 -10 -14  256.62   16.46
 -10 -10 -14  239.77   16.25
 -10 -10 -13    5.60    1.17
 -10 -10 -13    3.20    1.02
  10  10  13    5.20    1.12
 -10 -10 -12    2.75    1.14
 -10 -10 -12    4.59    1.17
  10  10  12    6.28    1.37
 -10 -10 -11   61.26    5.63
 -10 -10 -11   70.08    5.82
 -10 -10 -10   10.94    2.01
 -10 -10 -10    8.49    1.89
 -10 -10  -9  221.61   16.16
  10  10   9  244.59   16.24
 -10  10  -8  161.10   13.09
  10  10   8  172.32   12.19
 -10  10  -7   27.70    3.94
 -10 -10  -7   24.20    3.25
  10  10   7   22.63    2.90
 -10  10  -6  120.84   10.60
 -10 -10  -6  122.14   10.04
  10  10   6  136.16    9.75
 -10  10  -5   41.01    5.29
  10  10   5   45.27    4.36
 -10 -10  -5   46.67    4.89
 -10 -10  -4  103.56    9.03
 -10  10  -4   93.21    9.26
  10  10   4  123.86    8.67
 -10 -10  -3  446.17   31.53
 -10  10  -3  452.82   32.04
  10  10   3  483.47   30.90
 -10  10  -2  692.14   50.42
 -10 -10  -2  781.36   50.39
  10  10   2  791.61   49.49
  10  10   1  434.74   35.75
 -10  10  -1  412.30   30.85
 -10 -10  -1  456.51   30.80
  10  10   1  473.44   29.97
 -10  10   0    1.25    1.68
  10  10   0   10.59    3.77
 -10  10   0    4.65    2.04
 -10 -10   0    8.45    2.36
  10  10   0    8.92    1.67
 -10  10   1   60.80    6.58
  10  10  -1   67.75   10.01
 -10 -10   1   86.69    7.07
 -10  10   1   68.89    7.24
 -10  10   2  136.36   10.90
 -10  10   2  147.45   11.48
 -10 -10   2  136.34   10.73
 -10  10   2  116.23   11.16
 -10  10   3   31.96    4.81
 -10  10   3   36.15    4.52
 -10 -10   3   40.71    4.51
 -10  10   4   10.92    2.62
 -10  10   4   10.20    2.39
 -10  10   4   17.99    3.18
 -10 -10   4   12.52    2.39
 -10 -10   5   78.36    6.66
 -10  10   5   64.07    6.49
 -10  10   5   81.57    7.53
 -10  10   5   73.66    7.45
 -10  10   6   10.20    2.67
 -10  10   6   14.70    2.42
 -10  10   6   16.10    3.05
 -10 -10   6    7.30    1.84
 -10  10   7  241.77   17.03
 -10  10   7  199.67   16.57
 -10  10   8  428.33   29.02
 -10  10   8  394.02   28.75
 -10  10   9  334.14   22.96
  10  10  -9  310.51   21.37
  10  10  -9  306.60   21.67
 -10  10   9  309.61   22.67
 -10  10  10   67.95    6.76
  10  10 -10   55.62    5.27
  10  10 -10   60.55    5.62
 -10  10  10   60.59    6.51
 -10  10  11   31.17    4.63
 -10  10  11   35.04    4.73
  10  10 -11   41.99    4.05
  10  10 -11   37.63    4.10
 -10  10  12    4.52    1.96
  10  10 -12    7.42    1.69
  10  10 -12    3.84    1.50
 -10  10  12    7.21    2.23
 -10  10  13   42.54    5.37
  10  10 -13   49.08    4.68
  10  10 -13   54.96    5.03
 -10  10  13   40.58    5.25
 -10  10  14    6.44    2.15
  10  10 -14    8.37    1.86
  10 -10 -14    5.60    2.25
  10  10 -14    2.04    1.32
 -10  10  14    3.66    1.75
  10 -10 -15   92.81    7.84
 -10  10  15   88.55    7.94
  10  10 -15   81.59    6.95
  10  10 -15   82.64    7.12
 -10  10  15   77.87    7.68
  10  10 -16  327.47   21.74
  10 -10 -16  343.70   22.60
  10  10 -16  291.46   21.73
 -10  10  16  316.58   22.42
  10  10 -17  253.37   16.71
  10 -10 -17  236.50   17.17
 -10  10  17  218.94   17.04
  10  10 -18  155.75   11.32
  10 -10 -18  162.40   11.80
 -10  10  18  144.45   11.62
 -10  10  19    3.44    1.37
  10  10 -19    1.44    1.03
  10  10 -20   68.27    5.52
  10 -10 -20   62.69    5.58
 -10  10  21  250.43    8.30
  10  10 -21  237.71    7.62
  10  10 -22   50.11    4.39
  10  10 -22   56.19    4.66
  10  10 -23  158.60   11.02
  10  10 -23  162.12   11.17
  10  10 -24   87.44    6.49
  10  10 -24   96.62    6.62
 -10 -12  -9  557.77   35.56
 -10 -12  -8    1.64    0.60
 -10 -12  -8    1.29    0.78
 -10 -12  -7   41.10    3.48
 -10 -12  -7   49.46    3.95
 -10 -12  -6    2.01    0.77
 -10 -12  -6    3.96    1.14
 -10 -12  -5  109.53    7.96
 -10 -12  -5  118.73    8.51
 -10 -12  -4   69.67    5.79
 -10 -12  -3   88.55    7.08
 -10 -12  -2    4.52    1.52
 -10 -12  -1   97.20    7.72
 -10 -12   0   22.29    2.84
 -10 -12   1    5.30    1.56
 -10 -12   2    2.74    1.32
 -10 -12   3  186.92   13.28
 -10  12   4    0.49    1.52
  10  12  -4    3.57    1.05
 -10 -12   4    1.33    1.06
 -10  12   5   32.67    4.33
  10  12  -5   33.31    3.42
 -10  12   6   29.38    3.99
  10  12  -6   31.75    3.32
 -10  12   7   29.73    3.87
  10  12  -7   25.97    3.00
 -10  12   8    4.14    1.67
 -10  12   8    5.47    1.58
  10  12  -8    1.11    1.07
 -10  12   9    2.24    1.58
 -10  12   9    4.26    1.62
 -10  12  10   18.91    3.05
  10 -12 -10   18.49    3.08
 -10  12  10   25.41    2.93
 -10  12  11   10.63    2.31
 -10  12  11    5.61    1.61
 -10  12  12   36.76    3.70
 -10  12  12   32.49    3.91
  10 -12 -13  156.07   11.92
 -10  12  13  162.60   11.76
 -10  12  13  168.41   12.15
 -10  12  14    4.29    1.40
  10 -12 -14    5.66    1.59
 -10  12  14    4.92    1.35
  10 -12 -15   87.98    7.00
  10 -12 -16    7.84    1.57
  10 -12 -17  136.50    8.75
  10 -12 -17  108.92    8.33
  10 -12 -18    6.31    1.10
  10  12 -19   49.12    3.84
 -11  -1 -23   40.38    3.57
 -11  -1 -22  328.37   22.02
 -11  -1 -21  167.56   12.26
 -11  -1 -20  267.03   18.83
 -11  -1 -19    0.88    1.75
 -11  -1 -18   53.77    5.55
 -11  -1 -18   47.39    5.38
 -11  -1 -17   10.72    2.84
 -11  -1 -17   17.11    3.31
 -11  -1 -17   19.64    2.67
 -11  -1 -16  375.54   28.04
 -11  -1 -16  444.10   28.59
 -11  -1 -16  391.59   27.11
 -11  -1 -16  431.51   37.08
 -11   1 -16  379.32   35.51
 -11  -1 -15  643.64   48.95
 -11  -1 -15  791.98   49.70
 -11  -1 -15  772.06   48.35
 -11  -1 -15  637.91   56.92
 -11   1 -15  846.39   59.13
 -11  -1 -14  732.36   52.46
 -11  -1 -14  760.33   52.48
 -11  -1 -14  913.97   53.36
 -11  -1 -14  799.05   51.57
 -11  -1 -14  804.29   61.84
 -11   1 -14  788.90   60.87
 -11  -1 -14  770.35   50.76
 -11  -1 -13    6.57    2.33
 -11  -1 -13    4.61    2.09
 -11  -1 -13    5.07    1.34
 -11  -1 -13    5.04    2.28
 -11   1 -13    5.32    1.57
 -11  -1 -13    0.80    1.26
 -11  -1 -12   70.61    7.11
 -11  -1 -12   68.59    6.86
 -11   1 -12   64.87    6.61
 -11  -1 -12   77.87    7.33
 -11   1 -12   61.85    5.83
 -11  -1 -12   68.98    6.21
 -11   1 -12   61.63    5.44
 -11  -1 -12   70.96    5.79
 -11  -1 -12   85.28   13.23
 -11  -1 -11   27.72    4.01
 -11   1 -11   31.99    3.98
 -11  -1 -11   23.69    3.23
 -11   1 -11   30.87    3.36
 -11   1 -11   33.93    3.10
 -11  -1 -11   22.45    2.90
 -11  -1 -11   25.19    7.74
 -11  -1 -10 1169.72   76.30
 -11  -1 -10 1219.83   76.19
 -11   1 -10 1125.23   75.82
 -11  -1 -10 1274.00   85.67
 -11  -1 -10 1204.67   75.03
 -11   1 -10 1152.89   75.16
 -11   1 -10 1143.87   74.71
 -11  -1  -9  145.65   12.79
 -11  -1  -9  152.75   12.62
 -11  -1  -9  155.60   11.92
 -11   1  -9  190.00   12.36
 -11   1  -9  189.30   11.98
 -11  -1  -9  121.84   17.36
 -11  -1  -8 1730.41  113.40
 -11  -1  -8 1845.44  113.29
 -11  -1  -8 1931.84  122.32
 -11   1  -8 1733.45  112.46
 -11  -1  -8 1815.51  112.84
 -11   1  -8 1693.87  112.13
 -11  -1  -8 1807.93  112.47
 -11  -1  -7    6.56    2.14
 -11  -1  -7    9.56    1.75
 -11  -1  -7   14.43    5.00
 -11  -1  -7   10.57    2.01
 -11  -1  -6  267.57   19.71
 -11   1  -6  266.37   19.96
 -11  -1  -6  279.03   19.08
 -11  -1  -6  306.08   26.05
 -11  -1  -6  300.23   19.42
 -11   1  -5  661.09   43.90
 -11  -1  -5  739.52   51.04
 -11  -1  -4  397.10   32.23
 -11  -1  -3   80.03    6.51
 -11  -1  -3   98.77   11.54
 -11  -1  -2  570.10   42.94
 -11  -1  -1  637.02   46.94
 -11   1   0  185.70   13.61
 -11  -1   0  227.50   14.33
 -11  -1   0  207.99   19.04
 -11   1   1  293.77   18.92
 -11   1   1  279.07   19.44
 -11  -1   1  281.42   19.38
 -11  -1   1  273.18   24.16
 -11   1   2 1266.13   84.11
 -11  -1   2 1332.50   84.11
 -11  -1   2 1403.04   90.30
  11  -1  -2 1420.70   90.23
 -11  -1   3  141.15   10.86
 -11   1   3  157.67   11.10
 -11  -1   3  150.80   15.46
  11  -1  -3  175.77   15.67
 -11  -1   4 1043.89   69.54
  11  -1  -4  995.63   70.26
 -11  -1   5  362.07   28.13
  11  -1  -5  387.05   29.29
 -11  -1   6  497.05   31.28
  11   1  -6  389.12   27.12
  11  -1  -6  459.33   32.09
 -11  -1   7   31.99    5.20
  11  -1  -8   72.87    5.95
 -11  -1   8   73.55    8.12
 -11  -1   9   77.28    8.78
  11  -1  -9   92.36    7.18
  11  -1 -10  896.49   58.87
 -11  -1  10  928.79   61.35
  11  -1 -11  187.58   14.66
 -11  -1  11  227.02   17.13
  11  -1 -12   97.34    8.29
 -11  -1  12   77.68    9.14
  11  -1 -13    0.58    0.83
 -11  -1  13    1.88    1.74
  11  -1 -14    5.25    1.97
 -11  -1  14    2.02    1.68
  11  -1 -15  324.95   23.56
 -11  -1  15  321.83   25.30
  11  -1 -15  305.36   21.38
  11   1 -15  312.71   21.50
  11  -1 -16   22.28    4.07
 -11  -1  16   18.73    4.51
  11  -1 -16   28.69    5.47
  11  -1 -16   20.47    2.82
  11   1 -16   18.31    2.84
  11  -1 -17    0.91    1.52
  11   1 -17    2.21    1.08
 -11  -1  17    1.26    2.09
  11  -1 -17    5.14    2.61
  11  -1 -17    5.16    1.47
  11   1 -17    6.62    1.62
  11  -1 -18   13.05    3.67
  11   1 -18   10.36    1.69
 -11  -1  18    2.70    3.02
  11  -1 -18   11.03    4.31
  11  -1 -18   11.31    2.18
 -11  -1  19   69.02    9.48
  11   1 -19   51.57    4.79
  11  -1 -19   56.70    5.51
  11  -1 -19   67.64    9.51
  11   1 -20    0.58    0.83
 -11  -1  20    1.52    2.18
  11  -1 -20    4.68    3.41
  11  -1 -20    1.71    1.50
  11   1 -21    4.51    1.27
 -11  -1  21    3.19    2.30
  11  -1 -21    3.27    2.72
  11  -1 -21    3.55    1.77
  11   1 -22    8.41    1.71
  11  -1 -22    5.11    3.47
  11  -1 -22    6.77    2.21
  11   1 -23   12.77    2.04
 -11  -1  23    5.12    4.73
  11  -1 -23   10.06    2.34
 -11  -1  24    5.20    4.13
 -11   1  24    5.67    4.21
  11  -1 -24   18.38    2.72
 -11  -1  25   38.15    8.12
 -11   1  25   30.27    7.91
  11  -1 -25   43.29    4.73
  11   1 -25   39.38    8.82
  11  -1 -26   70.47    6.60
  11  -1 -27   73.29    6.71
  11  -1 -28  107.34    8.77
  11  -1 -29   12.22    2.32
  11  -1 -30   45.73    4.65
  11  -1 -30   48.34    4.64
  11  -1 -31  140.22   10.47
  11  -1 -32   58.39    5.10
 -11   3 -22    8.27    1.60
 -11  -3 -22   17.25    1.78
 -11  -3 -21  372.69   26.84
 -11   3 -21  469.42   27.54
 -11  -3 -20   69.67    5.62
 -11   3 -20   58.06    5.81
 -11  -3 -19   44.40    4.61
 -11   3 -19   55.06    5.41
 -11  -3 -19   48.20    4.42
 -11  -3 -18  145.13   11.37
 -11   3 -18  127.36   11.69
 -11  -3 -17  756.19   53.59
 -11   3 -17  864.73   54.69
 -11  -3 -17  847.41   53.38
 -11  -3 -16  217.08   15.07
 -11  -3 -16  246.67   15.38
 -11  -3 -16  230.73   14.68
 -11  -3 -15  849.44   59.05
 -11   3 -15 1076.48   60.81
 -11  -3 -15  897.94   59.51
 -11  -3 -15  924.04   59.34
 -11  -3 -15  945.15   58.85
 -11  -3 -15  856.23   57.88
 -11  -3 -15  819.66   66.39
 -11   3 -15  778.75   64.96
 -11   3 -15  914.40   59.02
 -11  -3 -14  124.42    9.73
 -11   3 -14   92.17    9.84
 -11   3 -14   82.33    8.79
 -11  -3 -14  114.03   15.42
 -11   3 -14   73.37   12.81
 -11  -3 -14  124.89   10.03
 -11  -3 -14  127.31    9.83
 -11  -3 -14  123.76    9.32
 -11  -3 -14  113.45    8.54
 -11  -3 -13  775.32   56.70
 -11   3 -13  983.61   58.51
 -11   3 -13  756.06   62.68
 -11  -3 -13  855.57   57.23
 -11   3 -13  845.42   56.64
 -11  -3 -13  884.15   65.23
 -11  -3 -13  906.41   55.96
 -11  -3 -13  860.24   57.03
 -11  -3 -12    8.41    5.52
 -11   3 -12    1.82    4.29
 -11  -3 -12   11.18    2.62
 -11   3 -12    6.43    3.06
 -11  -3 -12   13.28    2.83
 -11  -3 -12   15.93    2.78
 -11   3 -12    6.18    2.04
 -11  -3 -12    7.13    1.77
 -11  -3 -11   48.04    5.35
 -11   3 -11   63.54    6.66
 -11  -3 -11   46.38    5.42
 -11   3 -11   53.18    5.62
 -11  -3 -11   37.79    5.05
 -11   3 -11   54.34    5.32
 -11  -3 -11   42.10    4.59
 -11  -3 -11   37.12    8.69
 -11   3 -11   47.86    9.16
 -11  -3 -10  456.17   33.02
 -11   3 -10  524.67   34.35
 -11  -3 -10  504.62   33.38
 -11   3 -10  548.60   33.44
 -11   3 -10  456.54   32.93
 -11  -3 -10  506.36   33.39
 -11   3 -10  473.15   32.82
 -11  -3 -10  499.21   40.49
 -11   3 -10  461.69   38.71
 -11  -3 -10  469.64   32.76
 -11  -3 -10  466.49   32.42
 -11  -3  -9  165.73   13.30
 -11   3  -9  202.09   14.64
 -11  -3  -9  180.88   13.54
 -11   3  -9  150.52   12.86
 -11   3  -9  185.10   13.47
 -11   3  -9  181.12   13.35
 -11  -3  -9  162.21   18.63
 -11  -3  -9  173.51   13.13
 -11  -3  -9  172.18   12.86
 -11   3  -9  159.80   17.62
 -11  -3  -8   17.33    2.97
 -11   3  -8   20.84    3.59
 -11   3  -8   19.30    2.79
 -11   3  -8   18.66    2.97
 -11   3  -8   16.39    2.83
 -11  -3  -8   16.85    2.80
 -11  -3  -8   20.68    2.91
 -11  -3  -8   19.93    5.72
 -11   3  -8   10.85    4.21
 -11  -3  -7    4.28    1.71
 -11   3  -7    4.88    1.51
 -11   3  -7    3.74    1.59
 -11   3  -7    2.83    1.58
 -11  -3  -7    4.57    1.53
 -11  -3  -7    2.43    1.40
 -11  -3  -7    3.41    3.46
 -11   3  -7   -1.47    2.43
 -11  -3  -6   98.52    8.59
 -11   3  -6  113.72    9.38
 -11   3  -6  118.48    8.63
 -11  -3  -6   94.16   12.67
 -11   3  -6  119.96   12.83
 -11   3  -6  100.74    8.50
 -11  -3  -6  102.25    8.59
 -11  -3  -6  100.79    8.49
 -11   3  -6  107.96    8.46
 -11  -3  -5  648.39   43.12
 -11   3  -5  688.98   43.81
 -11  -3  -5  686.94   43.11
 -11   3  -5  636.08   42.78
 -11   3  -5  611.08   42.87
 -11  -3  -5  669.68   43.19
 -11  -3  -5  590.27   48.15
 -11   3  -5  654.49   42.33
 -11  -3  -5  685.95   43.16
 -11   3  -5  631.84   47.68
 -11  -3  -4  452.83   28.53
 -11   3  -4  370.91   28.01
 -11  -3  -4  459.31   34.26
 -11   3  -4  366.07   32.13
 -11  -3  -4  456.07   28.67
 -11  -3  -4  450.86   28.71
 -11  -3  -3 3261.19  203.17
 -11   3  -3 3135.31  202.85
 -11  -3  -3 3346.79  209.11
 -11   3  -3 3271.37  208.16
 -11  -3  -2  116.28    7.90
 -11  -3  -2  116.63   12.11
 -11   3  -2   87.24    7.25
 -11   3  -2   75.69   10.27
 -11  -3  -1 1455.04   93.60
 -11  -3  -1 1517.71   98.94
 -11   3  -1 1477.32   98.38
 -11   3  -1 1467.61   93.25
 -11  -3   0   16.34    2.25
  11  -3   0   15.63    4.64
  11   3   0   10.66    3.65
 -11   3   0   13.83    1.85
 -11   3   0   15.56    2.20
 -11   3   0   12.97    3.89
 -11  -3   0   19.46    4.59
 -11   3   1   93.68    7.22
 -11  -3   1  108.23    7.36
 -11  -3   1   93.23   10.92
 -11   3   1   97.30   11.09
 -11   3   1   94.66    6.83
 -11   3   1   79.82    7.09
  11  -3  -1   76.40   10.76
  11   3  -1   96.94   10.44
  11  -3  -2    2.45    2.27
  11   3  -2    1.01    2.20
 -11   3   2    3.70    1.26
 -11  -3   2    3.45    1.23
 -11   3   2    1.38    1.11
 -11  -3   2    2.45    2.49
 -11   3   2    2.56    2.81
 -11   3   3  369.71   25.76
 -11  -3   3  393.15   25.69
 -11  -3   3  369.69   30.28
 -11   3   3  392.52   31.14
 -11   3   3  352.96   25.73
  11  -3  -3  360.78   29.85
  11   3  -3  420.90   29.78
 -11   3   3  433.67   25.66
 -11  -3   4  401.30   24.14
 -11   3   4  330.66   24.06
 -11  -3   4  359.64   28.93
 -11   3   4  248.09   27.62
  11  -3  -4  329.41   27.63
  11   3  -4  430.35   28.45
 -11   3   4  370.30   23.75
  11   3  -5  245.47   19.24
 -11  -3   5  267.46   21.17
 -11   3   5  235.50   21.39
 -11   3   5  276.28   17.68
 -11  -3   6  187.72   16.55
 -11   3   6  175.73   17.06
  11   3  -6  189.54   15.01
 -11   3   6  208.64   13.52
 -11  -3   7  226.08   17.73
 -11   3   7  223.35   18.44
  11   3  -7  199.51   15.69
  11   3  -8    6.03    1.60
 -11  -3   8    4.07    2.25
 -11   3   8    1.00    1.86
 -11  -3   9  395.67   28.45
 -11   3   9  370.91   29.04
 -11  -3  10  697.73   46.22
 -11   3  10  626.59   46.70
 -11  -3  11   17.62    3.73
 -11   3  11   13.43    3.75
 -11  -3  12    8.75    2.85
 -11   3  12    6.51    3.27
  11  -3 -13  368.29   28.61
 -11  -3  13  408.94   29.48
 -11   3  13  391.70   30.15
  11  -3 -14   13.85    3.45
  11  -3 -14   21.68    2.58
  11   3 -14   18.44    2.53
 -11  -3  14   15.91    3.78
  11  -3 -15    4.00    2.35
 -11  -3  15    6.42    2.94
  11   3 -15    7.16    3.28
  11  -3 -15    3.15    1.95
  11  -3 -15    3.97    1.40
  11   3 -15    2.44    1.24
 -11   3  15    1.33    2.21
  11  -3 -16  161.78   15.53
 -11  -3  16  176.52   16.25
 -11   3  16  173.94   17.25
  11   3 -16  154.22   12.00
  11  -3 -16  186.48   16.38
  11   3 -16  173.36   16.66
  11  -3 -16  190.38   12.60
  11   3 -16  169.76   12.64
  11   3 -17   -1.37    2.27
  11  -3 -17    5.81    2.54
 -11  -3  17   -1.24    2.30
  11  -3 -17    6.01    2.63
 -11   3  17    4.64    2.86
  11  -3 -17    1.36    1.09
  11   3 -17    1.95    1.25
  11  -3 -18    9.96    3.32
  11   3 -18    9.59    1.88
 -11  -3  18    5.33    3.18
  11   3 -18   13.20    4.58
  11  -3 -18   10.27    4.02
 -11   3  18   14.89    5.16
  11   3 -18   13.92    2.39
  11  -3 -18    9.65    2.00
  11  -3 -19   10.60    3.67
  11   3 -19   12.49    2.06
 -11  -3  19    7.10    4.10
  11   3 -19    1.55    2.90
 -11   3  19    8.79    4.39
  11  -3 -19    5.42    3.00
  11   3 -19    8.95    2.12
  11  -3 -19    8.20    1.89
  11   3 -20  193.08   22.14
  11  -3 -20  243.08   22.64
  11  -3 -20  262.84   23.04
  11   3 -20  281.63   18.21
 -11  -3  20  280.25   23.77
 -11   3  20  205.38   23.07
  11  -3 -20  279.52   18.29
  11   3 -20  235.03   18.22
  11   3 -21    7.70    1.76
  11  -3 -21    8.85    3.88
  11   3 -21   12.57    2.28
  11   3 -21    5.05    3.43
  11  -3 -21    2.96    2.48
 -11  -3  21    3.13    2.62
 -11   3  21    3.85    3.20
  11  -3 -21    4.32    1.64
  11   3 -21    5.81    2.09
  11  -3 -22   38.63    4.37
  11   3 -22   47.71    4.57
  11  -3 -22   35.25    7.07
  11   3 -22   41.40    4.53
 -11  -3  22   45.22    8.62
  11   3 -22   36.61    4.49
 -11   3  22   49.45    9.18
  11   3 -23  136.32   10.26
 -11  -3  23  133.26   15.44
  11  -3 -23  128.71   10.23
  11   3 -23  131.58   10.47
  11   3 -23  124.86   10.26
 -11   3  23  118.05   15.71
  11   3 -24    4.37    1.55
  11  -3 -24    4.78    1.49
  11   3 -24    5.39    1.59
 -11  -3  24   -1.65    4.31
 -11   3  24   -3.99    6.81
  11   3 -24    3.70    3.75
  11  -3 -24    1.64    4.06
  11   3 -25   35.14    4.15
  11  -3 -25   36.42    4.02
  11   3 -25   32.63    3.88
  11   3 -26    4.45    1.50
  11  -3 -26    3.00    1.55
  11   3 -26    7.96    2.07
  11   3 -27  160.29   12.75
  11  -3 -27  183.98   13.04
  11   3 -27  190.78   13.30
  11   3 -28   78.46    6.46
  11  -3 -28   67.71    6.35
  11   3 -28   86.58    6.86
  11  -3 -29  632.68   40.59
  11   3 -29  649.52   40.79
  11   3 -29  587.79   40.17
  11  -3 -30   61.43    5.48
  11   3 -30   69.01    5.69
  11  -3 -31   60.43    4.79
  11   3 -31   50.07    4.65
 -11  -5 -20   48.78    2.60
  11   5  20   51.16    3.02
 -11   5 -19   -0.24    0.53
 -11  -5 -19  307.24    7.10
 -11  -5 -18    0.46    1.33
 -11   5 -18    3.10    1.61
 -11   5 -17   31.87    3.90
 -11  -5 -17   39.85    3.84
 -11  -5 -17   32.54    3.48
 -11  -5 -16   47.95    4.31
 -11  -5 -16   41.55    4.50
 -11  -5 -15  426.60   27.75
 -11  -5 -15  375.52   27.90
 -11   5 -15  467.24   29.02
 -11  -5 -14    5.09    1.86
 -11   5 -14    8.33    2.38
 -11  -5 -14    4.19    1.75
 -11   5 -14    5.20    2.30
 -11  -5 -14    4.04    1.83
 -11   5 -14    9.27    1.89
 -11  -5 -14    4.03    1.40
 -11   5 -13  142.75   11.08
 -11  -5 -13  120.92   10.50
 -11  -5 -13  118.49    9.96
 -11   5 -13  126.24    9.85
 -11  -5 -13  130.09   10.38
 -11  -5 -13  134.25   10.10
 -11   5 -13  156.05   11.51
 -11  -5 -13  120.58   10.08
 -11  -5 -12   57.37    5.50
 -11   5 -12   68.81    6.41
 -11   5 -12   43.64    7.84
 -11  -5 -12   59.26    5.74
 -11  -5 -12   44.90    5.58
 -11   5 -12   49.10    5.07
 -11  -5 -12   65.67    5.68
 -11  -5 -12   50.46    5.30
 -11   5 -12   57.35    6.33
 -11  -5 -11  544.27   37.11
 -11   5 -11  561.78   37.82
 -11  -5 -11  659.67   38.07
 -11   5 -11  515.30   37.46
 -11  -5 -11  593.23   37.13
 -11   5 -11  502.55   36.50
 -11  -5 -11  565.73   37.31
 -11   5 -11  422.91   40.27
 -11   5 -11  581.07   38.18
 -11  -5 -11  575.65   37.19
 -11   5 -10  362.91   23.62
 -11  -5 -10  340.52   23.22
 -11   5 -10  368.53   23.85
 -11   5 -10  362.54   23.48
 -11  -5 -10  316.90   22.54
 -11  -5 -10  304.69   22.75
 -11  -5 -10  268.88   27.15
 -11   5 -10  320.30   27.09
 -11  -5 -10  324.25   22.74
 -11   5 -10  329.60   22.29
 -11  -5 -10  279.09   22.45
 -11   5  -9 1414.19   88.57
 -11  -5  -9 1586.64   88.81
 -11  -5  -9 1370.08   88.16
 -11  -5  -9 1484.83   94.57
 -11   5  -9 1373.14   88.57
 -11  -5  -9 1459.67   87.93
 -11   5  -9 1270.32   88.18
 -11   5  -9 1261.67   87.30
 -11   5  -9 1206.33   91.81
 -11   5  -9 1229.85   87.55
 -11  -5  -9 1400.69   88.13
 -11  -5  -9 1449.40   88.10
 -11   5  -8  126.81    9.87
 -11   5  -8  121.95    9.66
 -11  -5  -8  106.38    9.00
 -11   5  -8  133.82    9.04
 -11   5  -8  108.70   12.38
 -11   5  -8  107.20    8.90
 -11  -5  -8   99.47    9.15
 -11  -5  -8   87.10   12.30
 -11  -5  -8   96.29    9.05
 -11   5  -8  128.82    9.98
 -11   5  -7  400.72   26.62
 -11  -5  -7  441.32   26.74
 -11   5  -7  354.18   26.18
 -11  -5  -7  429.31   31.87
 -11   5  -7  316.43   29.17
 -11   5  -7  355.94   25.71
 -11   5  -7  397.80   26.62
 -11   5  -6  307.63   21.18
 -11   5  -6  305.24   21.05
 -11  -5  -6  328.00   26.13
 -11   5  -6  260.94   23.88
 -11   5  -6  280.29   20.44
 -11  -5  -6  326.09   21.43
 -11   5  -6  298.01   21.18
 -11  -5  -5  267.12   18.16
 -11   5  -5  256.28   18.17
 -11   5  -5  252.04   18.03
 -11  -5  -5  250.99   22.18
 -11   5  -5  230.41   20.96
 -11   5  -5  254.61   18.24
 -11  -5  -4   19.24    2.97
 -11   5  -4   27.84    3.34
 -11   5  -4   24.97    3.17
 -11   5  -4   25.93    5.03
 -11  -5  -4   28.37    5.62
 -11   5  -4   29.18    3.51
 -11  -5  -3  972.82   58.55
 -11   5  -3  775.26   61.04
 -11  -5  -3  946.03   59.01
 -11  -5  -3  993.61   63.33
 -11   5  -3  810.98   58.25
  11  -5   3  945.29   64.62
  11   5   3  937.41   62.72
 -11  -5  -2   29.18    3.29
  11  -5   2   25.28    5.45
  11   5   2   30.67    5.53
 -11  -5  -2   38.31    6.05
 -11   5  -2   22.50    4.53
 -11  -5  -2   26.75    3.50
 -11  -5  -1   42.84    4.23
  11   5   1   37.01    5.94
 -11   5  -1   43.51    4.66
 -11  -5  -1   41.70    6.38
 -11   5  -1   47.00    6.43
 -11  -5  -1   39.69    4.55
 -11  -5   0  212.67   15.39
 -11  -5   0  231.54   18.97
 -11   5   0  215.47   18.14
 -11   5   0  227.88   16.02
 -11  -5   0  207.63   15.88
  11  -5   0  205.88   18.94
  11   5   0  221.32   18.54
 -11   5   0  236.48   15.84
 -11  -5   1  303.24   22.61
 -11   5   1  250.70   21.42
 -11   5   1  252.00   19.32
  11   5  -1  322.02   22.75
 -11  -5   1  306.49   19.63
  11  -5  -1  226.34   21.64
  11   5  -1  263.35   21.69
 -11   5   1  282.71   19.13
 -11   5   2   39.03    4.19
  11   5  -2   32.40    5.25
 -11  -5   2   25.84    5.02
 -11   5   2   35.74    5.49
 -11  -5   2   33.14    3.93
  11   5  -2   28.82    2.90
  11  -5  -2   34.49    5.59
  11   5  -2   29.39    4.94
 -11   5   2   45.81    3.99
 -11   5   3  623.67   43.33
 -11  -5   3  829.10   48.73
 -11   5   3  756.45   47.95
 -11   5   3  617.62   44.39
  11   5  -3  755.07   47.44
 -11   5   3  712.62   44.06
 -11   5   4  398.16   27.33
 -11  -5   4  445.73   31.89
 -11   5   4  475.05   32.18
 -11   5   4  382.25   28.30
  11   5  -4  413.10   30.59
 -11   5   4  453.65   27.95
 -11   5   5  399.61   28.88
 -11  -5   5  513.76   34.32
 -11   5   5  437.62   33.57
  11   5  -5  455.46   32.27
 -11   5   5  487.46   29.49
 -11   5   6    7.41    1.53
 -11   5   6    7.34    1.30
 -11  -5   6    6.82    2.69
 -11   5   6    8.61    3.55
  11   5  -6    2.49    1.86
 -11   5   7  397.71   27.43
 -11  -5   7  392.32   31.83
 -11   5   7  340.98   31.58
  11   5  -7  398.61   30.17
 -11   5   7  469.92   27.76
  11   5  -8  263.48   20.70
 -11   5   8  242.98   21.40
 -11  -5   8  266.20   20.94
 -11   5   8  265.16   17.98
 -11  -5   9   41.08    6.29
 -11   5   9   57.62    4.85
 -11   5   9   60.37    7.89
 -11   5  10   97.12   10.83
 -11   5  10   93.80    7.67
 -11  -5  11   67.94    8.30
 -11   5  11   92.53   10.22
 -11   5  11   78.21    6.35
 -11  -5  12    4.53    2.26
  11   5 -12    5.51    2.28
  11  -5 -12    0.81    1.50
 -11   5  12    2.29    2.13
 -11   5  12    3.18    1.23
  11   5 -13  224.84   16.14
  11   5 -13  243.57   19.58
  11  -5 -13  203.73   18.32
  11   5 -13  230.75   16.04
 -11  -5  13  231.24   19.15
 -11   5  13  234.74   20.33
 -11   5  13  240.73   16.10
 -11  -5  14    6.97    2.76
 -11   5  14    5.04    3.15
  11   5 -14    9.02    1.83
  11   5 -14    7.36    3.04
  11  -5 -14    0.91    1.74
  11   5 -14    6.66    1.54
 -11   5  14    9.08    1.71
  11  -5 -15  200.05   20.47
  11  -5 -15  218.30   18.53
  11   5 -15  234.66   15.76
  11   5 -15  221.62   19.35
  11   5 -15  215.18   15.48
 -11  -5  15  237.63   19.32
 -11   5  15  213.59   20.13
 -11   5  15  212.72   15.39
 -11  -5  16    2.25    2.09
 -11   5  16    2.82    2.61
  11  -5 -16    7.93    3.93
  11   5 -16    1.10    1.18
  11   5 -16    1.19    1.97
  11  -5 -16    9.28    2.96
  11   5 -16    2.64    1.20
  11  -5 -17  722.05   52.45
  11   5 -17  693.36   45.84
  11   5 -17  711.25   45.52
  11   5 -17  734.61   45.83
  11  -5 -17  721.05   46.19
  11   5 -17  668.70   49.92
  11  -5 -17  646.68   49.01
  11  -5 -17  655.42   45.15
 -11  -5  17  726.48   50.24
 -11   5  17  669.73   51.09
  11  -5 -18   89.48   13.34
  11   5 -18  118.62    9.56
  11   5 -18   91.23   11.98
  11  -5 -18   98.95   11.85
  11  -5 -18  138.94    9.32
  11   5 -18  124.82    9.41
 -11  -5  18  159.63   14.50
 -11   5  18  146.03   15.11
  11   5 -18  108.62    9.49
  11  -5 -19  663.92   48.43
  11   5 -19  628.71   41.19
  11  -5 -19  585.10   40.40
  11   5 -19  627.56   40.77
 -11  -5  19  689.71   46.63
 -11   5  19  611.85   47.24
 -11   5  20   18.62    5.52
  11   5 -20   20.70    3.07
  11  -5 -20   20.06    5.53
  11  -5 -20   13.93    2.30
  11   5 -20   16.58    2.62
  11  -5 -21  333.72   27.57
  11   5 -21  294.18   19.99
  11  -5 -21  256.91   19.07
  11   5 -21  292.96   19.49
 -11   5  21  241.02   24.91
 -11   5  22   56.82    9.65
  11   5 -22   69.91    6.11
  11  -5 -22   46.60    9.11
  11  -5 -22   52.47    5.23
  11   5 -22   68.57    5.71
  11   5 -22   53.94    8.77
  11   5 -23  336.84   23.45
  11  -5 -23  322.39   22.71
  11   5 -23  334.99   23.66
  11   5 -23  352.45   23.04
  11   5 -24   38.93    4.44
  11  -5 -24   45.08    4.06
  11   5 -24   36.44    3.98
  11   5 -24   39.56    4.63
  11   5 -25   92.75    7.25
  11   5 -25   95.20    7.69
  11  -5 -25   76.51    6.84
  11   5 -25   94.20    7.85
  11   5 -26   17.11    2.60
  11  -5 -26    8.86    1.78
  11   5 -26   16.30    2.29
  11   5 -26   18.79    2.93
  11  -5 -27    2.05    0.93
  11   5 -27    1.94    1.06
  11   5 -27    1.04    1.22
  11   5 -27    2.12    1.41
  11   5 -28   29.82    2.78
  11   5 -28   -0.47    0.70
  11   5 -29   29.17    2.48
  11   5 -29   -0.17    0.29
  11   5 -30   17.50    2.03
 -11  -7 -19    9.13    1.25
 -11  -7 -18  177.16   12.80
  11   7  18  205.44   13.12
  11   7  17   52.28    4.57
 -11  -7 -16  976.34   67.43
  11   7  16 1229.54   68.33
 -11  -7 -15  340.27   23.29
  11   7  15  362.34   23.82
 -11  -7 -15  356.11   23.74
 -11  -7 -14 1013.57   65.73
 -11  -7 -14  962.16   65.35
  11   7  14 1098.42   65.87
 -11  -7 -13  134.54   11.00
 -11   7 -13  164.53   12.17
 -11  -7 -13  145.94   10.95
  11   7  13  148.50   11.09
 -11   7 -12   19.59    3.55
 -11  -7 -12   11.88    2.41
 -11  -7 -12   19.16    2.62
  11   7  12   10.48    2.23
 -11   7 -11    7.16    2.67
 -11  -7 -11    4.99    1.67
 -11  -7 -11    2.04    1.34
  11   7  11    7.26    1.84
 -11   7 -10  219.02   17.13
 -11  -7 -10  232.72   16.42
 -11  -7 -10  219.70   16.32
 -11   7  -9   16.56    3.28
 -11   7  -9   13.49    2.45
 -11  -7  -8 1010.67   60.18
 -11  -7  -8  908.56   60.23
 -11   7  -8  905.36   60.79
  11   7   8  946.72   66.31
 -11   7  -8  862.53   59.63
 -11   7  -7   64.97    6.37
  11   7   7   42.26    8.04
 -11   7  -6   48.14    5.30
  11   7   6   33.79    7.04
  11   7   6   44.44    4.51
  11   7   5  151.39   15.97
 -11  -7  -5  149.44   11.87
  11   7   5  148.99   11.17
 -11  -7  -4  321.81   22.52
  11   7   4  338.12   27.88
 -11  -7  -4  313.54   23.09
  11   7   4  342.08   22.41
 -11  -7  -3  379.20   24.85
 -11   7  -3  325.59   25.12
  11   7   3  364.76   29.83
 -11  -7  -3  369.51   25.47
  11   7   3  376.32   24.58
 -11  -7  -2 1299.44   86.02
 -11   7  -2 1307.14   86.59
  11   7   2 1348.14   91.68
 -11  -7  -2 1399.80   86.90
  11   7   2 1367.23   85.80
 -11  -7  -1  599.08   39.67
  11   7   1  629.13   45.14
 -11  -7  -1  623.21   40.45
  11   7   1  625.11   39.37
 -11   7  -1  551.51   39.99
 -11  -7   0  101.89    8.77
 -11   7   0  110.01    9.20
  11   7   0   99.91   12.05
 -11   7   0  112.22    9.77
 -11  -7   0  126.95    9.70
  11   7   0  121.43    8.61
 -11   7   0  120.63    9.75
 -11   7   1    9.70    2.22
 -11   7   1    2.78    1.42
  11   7  -1    3.72    2.07
 -11   7   1    5.83    2.21
 -11  -7   1    3.99    1.78
  11   7  -1    4.69    1.17
 -11   7   2  407.35   30.24
  11   7  -2  490.22   34.35
 -11  -7   2  455.61   29.92
 -11   7   2  436.42   29.57
 -11   7   2  432.85   30.03
 -11   7   3    1.82    1.51
 -11   7   3    4.38    1.87
  11   7  -3   -1.19    2.20
 -11  -7   3    2.87    1.40
 -11   7   3    1.84    1.33
 -11   7   4   72.49    6.60
 -11   7   4   72.82    7.41
  11   7  -4   83.05    9.84
 -11  -7   4   84.70    7.03
 -11   7   4   80.55    7.14
 -11   7   5    0.44    1.08
 -11   7   5    0.34    0.94
 -11   7   5    0.56    1.53
  11   7  -5    1.16    1.36
 -11  -7   5    0.37    1.19
 -11   7   6   59.59    6.51
  11   7  -6   70.92    8.85
 -11  -7   6   64.40    5.75
 -11   7   6   61.09    5.98
 -11   7   7  199.31   14.79
 -11   7   8 1612.51  103.56
 -11   7   9  598.69   39.96
 -11   7  10 1107.31   71.86
 -11   7  11  132.82   10.62
 -11   7  12  439.88   30.01
  11   7 -13   19.89    2.92
 -11   7  13   17.99    3.03
  11   7 -14   83.43    7.46
 -11   7  14   91.93    7.83
  11  -7 -15   17.88    6.44
  11   7 -15   14.36    2.57
 -11   7  15    9.09    2.11
  11  -7 -16  348.31   30.24
  11   7 -16  279.66   20.65
 -11   7  16  298.89   20.84
  11  -7 -17  210.14   22.23
  11   7 -17  189.69   13.75
  11  -7 -17  181.73   14.11
 -11   7  17  166.98   13.47
  11  -7 -18 1109.57   70.93
  11   7 -18  892.07   59.30
  11   7 -18  930.47   59.45
  11  -7 -18 1057.83   60.27
 -11   7  18  785.50   58.91
  11  -7 -19   15.81    5.44
  11   7 -19   18.74    3.07
  11  -7 -19   26.10    3.70
  11   7 -20   99.93    8.83
  11  -7 -20  116.63    9.31
  11  -7 -21   39.29    4.15
  11   7 -21   27.25    3.71
  11   7 -22  144.19   11.24
  11   7 -23    0.40    1.32
  11   7 -23    1.80    1.58
  11   7 -24    6.70    1.83
  11   7 -24    4.53    1.67
  11   7 -25    5.10    1.57
  11   7 -25    4.42    1.69
  11   7 -26  239.14   16.40
  11   7 -26  230.19   16.39
  11   7 -27  131.23    8.78
  11   7 -27  103.44    8.44
  11   7 -28  371.18   24.45
 -11  -9 -17   29.77    2.41
 -11  -9 -16  114.05    7.91
 -11  -9 -15   94.01    6.44
 -11  -9 -15   81.89    6.08
 -11  -9 -14   13.80    1.82
 -11  -9 -14   12.07    1.63
  11   9  14   16.53    1.96
 -11  -9 -13    3.87    1.16
 -11  -9 -13    5.38    1.26
  11   9  13    3.67    1.08
 -11  -9 -12  297.44   19.86
 -11  -9 -12  274.78   19.71
  11   9  12  307.11   19.88
 -11  -9 -11   10.18    1.96
 -11  -9 -11    7.64    1.83
  11   9  11   10.96    1.93
 -11   9 -10 2483.14  147.85
 -11  -9 -10 2171.76  146.47
 -11  -9 -10 2203.92  146.58
  11   9  10 2453.75  146.56
 -11  -9  -9   83.97    7.55
 -11  -9  -9   83.24    7.65
  11   9   9   99.63    7.65
  11   9   8 2491.85  158.03
  11   9   7   99.66    7.97
 -11   9  -6  566.86   39.45
 -11  -9  -6  561.91   38.79
  11   9   6  603.01   38.28
 -11   9  -5   54.03    6.23
  11   9   5   56.28    9.06
 -11  -9  -5   54.57    5.80
  11   9   5   68.85    5.59
  11   9   4   10.70    3.88
 -11   9  -4    9.51    2.62
 -11  -9  -4   13.18    2.62
  11   9   4   15.68    2.27
 -11   9  -3    4.41    2.10
  11   9   3    3.05    2.20
 -11  -9  -3    3.34    1.78
  11   9   3    4.17    1.27
  11   9   2   12.15    4.09
 -11   9  -2   18.32    3.15
 -11  -9  -2   13.98    2.85
  11   9   2   16.57    2.33
 -11   9  -1  329.34   24.99
  11   9   1  363.94   30.02
 -11  -9  -1  364.08   25.03
  11   9   1  367.03   24.04
 -11   9   0  380.88   29.01
 -11  -9   0  405.86   27.57
  11   9   0  425.23   33.59
 -11  -9   0  417.56   28.52
 -11   9   0  395.73   28.55
  11   9   0  442.09   27.59
 -11  -9   1   88.23    7.47
  11   9  -1   80.80   11.17
 -11  -9   1   91.33    8.20
 -11   9   1  105.93    8.61
 -11   9   1  105.43    9.10
 -11  -9   2 1184.56   73.52
  11   9  -2 1168.82   79.63
 -11   9   2 1113.80   74.31
 -11  -9   2 1156.11   74.28
 -11   9   2 1081.71   74.90
 -11   9   3   22.03    3.58
 -11   9   3   15.70    2.80
  11   9  -3   18.63    5.14
 -11  -9   3   15.40    2.93
  11   9  -4 1375.62   85.80
 -11  -9   4 1278.26   79.73
 -11   9   4 1167.17   79.65
 -11   9   4 1210.67   80.51
 -11   9   5  224.81   16.84
 -11  -9   5  243.94   16.88
 -11   9   5  230.90   17.63
 -11   9   6  343.44   23.25
 -11  -9   6  327.90   23.01
 -11   9   6  335.26   24.10
 -11   9   7   20.69    3.53
 -11   9   7   15.97    2.61
 -11   9   8    8.01    2.33
 -11   9   8   14.03    2.31
 -11   9   9    2.85    1.95
 -11   9  10   15.89    3.17
  11   9 -11  150.34   11.35
 -11   9  11  141.27   11.95
  11   9 -12   64.48    5.83
 -11   9  12   54.60    6.29
  11   9 -13   21.82    2.96
  11   9 -13   20.74    3.06
 -11   9  13   21.06    3.62
  11   9 -14   96.82    7.65
  11   9 -14   87.74    7.61
 -11   9  14   78.36    7.95
  11   9 -15  302.35   19.75
  11   9 -15  282.30   19.78
 -11   9  15  250.71   20.01
  11   9 -16   89.86    7.18
  11   9 -16   80.76    7.13
  11  -9 -16   72.67    7.44
 -11   9  16   78.03    7.44
  11   9 -17    6.88    2.03
  11   9 -17    8.03    2.05
  11  -9 -17   13.72    2.72
 -11   9  17   11.38    2.52
  11   9 -18   95.02    7.47
  11  -9 -18   92.13    7.95
 -11   9  18   73.87    7.34
  11   9 -19  247.28   17.26
  11  -9 -19  271.78   17.85
 -11   9  19  220.57   17.27
  11   9 -20   61.93    5.63
  11  -9 -20   65.50    5.95
  11   9 -21   83.16    6.88
  11  -9 -21   83.17    6.88
  11   9 -23    5.29    1.44
  11   9 -24  251.48   17.11
  11   9 -25   19.12    2.15
 -11 -11 -12   58.30    4.53
 -11 -11 -12   68.69    4.57
 -11 -11 -11    1.56    0.64
 -11 -11 -11    0.60    0.64
 -11 -11 -10   38.85    3.14
 -11 -11 -10   33.46    3.18
 -11 -11  -9  106.45    7.63
 -11 -11  -8    3.35    0.99
 -11 -11  -8    1.97    1.11
 -11 -11  -7   66.87    5.40
 -11 -11  -7   69.27    5.73
  11  11   7   68.27    5.37
 -11 -11  -6   48.78    4.34
 -11 -11  -6   51.29    4.76
  11  11   6   52.34    4.34
 -11  11  -5  701.18   42.21
 -11 -11  -5  591.61   40.77
 -11 -11  -5  641.69   41.37
 -11  11  -4  386.98   28.65
 -11 -11  -4  434.13   27.76
 -11 -11  -4  429.26   28.30
 -11 -11  -3 1924.88  124.44
 -11  11  -3 1985.16  125.73
 -11 -11  -3 2008.34  125.17
 -11  11  -2  425.48   30.39
 -11 -11  -2  464.28   30.11
 -11  11  -1  544.77   37.71
 -11 -11  -1  577.65   37.43
 -11  11   0   75.64    7.52
 -11 -11   0   98.68    7.59
 -11  11   1  252.01   19.76
 -11 -11   1  309.30   19.85
 -11 -11   2    3.01    1.57
 -11  11   2    2.63    1.63
 -11  11   3    1.73    2.05
 -11  11   3    7.59    1.94
 -11 -11   3    5.46    1.71
 -11  11   4    0.58    1.66
 -11  11   4    4.02    1.63
 -11 -11   4    4.81    1.57
 -11  11   5   25.89    3.81
 -11  11   5   22.62    3.08
 -11  11   5   22.49    3.42
 -11 -11   5   19.42    2.66
  11  11  -6   44.64    4.18
 -11  11   6   62.91    5.82
 -11  11   6   58.11    5.98
  11  11  -7  169.72   11.85
 -11  11   7  185.99   13.42
 -11  11   7  153.50   13.30
 -11  11   8  120.92    9.79
  11  11  -8  112.45    8.47
 -11  11   8  117.78   10.06
 -11  11   9  441.86   27.14
  11  11  -9  371.98   25.46
  11  11  -9  378.48   25.99
 -11  11   9  375.61   27.01
 -11  11  10  251.62   16.53
  11  11 -10  214.62   15.00
  11  11 -10  219.51   15.47
 -11  11  10  194.26   16.16
 -11  11  11  577.19   35.80
  11  11 -11  514.58   34.38
  11  11 -11  531.35   34.87
 -11  11  11  497.32   35.66
 -11  11  12   54.75    5.75
  11  11 -12   57.38    4.88
  11  11 -12   60.17    5.25
 -11  11  12   52.61    5.74
 -11  11  13  110.35    8.50
  11  11 -13   86.32    7.23
  11  11 -13   90.75    7.55
  11 -11 -13  103.55    8.36
 -11  11  13  102.17    8.47
 -11  11  14   80.01    6.95
  11  11 -14   68.91    5.92
  11  11 -14   67.67    6.12
  11 -11 -14   83.98    6.95
 -11  11  14   85.92    7.17
 -11  11  15  211.35   14.41
  11  11 -15  177.73   13.31
  11  11 -15  190.55   13.68
  11 -11 -15  191.31   14.19
 -11  11  15  211.74   14.48
 -11  11  16  128.46    9.51
  11  11 -16  110.30    8.58
  11 -11 -16  117.36    9.28
 -11  11  16  124.09    9.42
 -11  11  17    4.53    1.47
  11  11 -17    3.88    1.11
  11 -11 -17    6.10    1.66
 -11  11  17    5.19    1.59
 -11  11  18   68.84    5.94
  11  11 -18   64.30    5.29
  11 -11 -18   72.81    5.78
  11  11 -19   66.44    5.06
  11 -11 -19   64.20    5.28
  11  11 -20    9.76    1.21
  11  11 -20    8.10    1.39
  11  11 -21    3.29    0.75
  11  11 -21    3.58    0.88
 -11 -13  -5    1.39    0.53
 -11 -13  -4    9.26    1.18
  11  13   3  108.27    7.56
 -11 -13  -3  115.08    7.74
  11  13   2    0.62    0.54
 -11 -13  -2    1.62    0.70
  11  13   1   96.40    6.47
 -11 -13  -1   84.79    6.47
  11  13   0    6.40    1.08
 -11 -13   0    5.79    1.08
  11  13  -1  589.77   35.92
 -11 -13   1  532.17   35.77
  11  13  -2   26.73    2.59
  11  13  -3  957.82   61.00
  11  13  -4  161.26   11.08
  11 -13  -5  794.61   51.89
  11  13  -5  806.66   51.30
  11  13  -6    3.26    1.01
  11 -13  -6    2.92    1.40
  11  13  -7  114.79    8.18
  11 -13  -7  114.85    8.76
  11  13  -8    6.99    1.31
  11 -13  -8    9.89    1.79
  11  13  -9   15.48    1.86
  11 -13  -9   15.00    2.22
  11  13 -10   48.74    3.94
  11 -13 -10   47.42    4.36
  11 -13 -13  397.78   26.01
  11 -13 -14    5.53    1.11
 -12   0 -23    1.40    0.81
 -12   0 -22  695.92   44.89
 -12   0 -21    5.55    1.81
 -12   0 -20 1658.49  106.01
 -12   0 -19    2.50    1.95
 -12   0 -18  372.53   26.00
 -12   0 -17    3.16    2.18
 -12   0 -17    0.51    1.80
 -12   0 -16   58.07    6.13
 -12   0 -16   49.51    5.78
 -12   0 -15   -2.28    3.27
 -12   0 -15    2.40    2.10
 -12   0 -15    2.36    1.89
 -12   0 -14    4.70    3.91
 -12   0 -14    9.28    2.65
 -12   0 -14   11.07    2.58
 -12   0 -14    4.98    1.70
 -12   0 -13    2.38    3.94
 -12   0 -13   -1.25    1.93
 -12   0 -13   -0.57    2.12
 -12   0 -13    1.24    1.99
 -12   0 -13    1.55    1.16
 -12   0 -13   -0.27    0.97
 -12   0 -12  298.34   21.10
 -12   0 -12  292.09   21.05
 -12   0 -12  269.47   20.52
 -12   0 -12  275.05   28.28
 -12   0 -12  284.43   19.77
 -12   0 -12  275.84   19.16
 -12   0 -11    7.84    3.25
 -12   0 -11    5.86    2.44
 -12   0 -11    4.95    1.84
 -12   0 -11    5.21    1.51
 -12   0 -11    4.63    4.30
 -12   0 -10 4907.98  313.90
 -12   0 -10 4899.55  313.47
 -12   0 -10 5179.43  323.60
 -12   0 -10 4983.84  312.30
 -12   0  -9    7.68    2.95
 -12   0  -9   11.31    2.75
 -12   0  -9    7.49    1.74
 -12   0  -9    4.26    4.34
 -12   0  -8 2287.95  146.86
 -12   0  -8 2301.45  146.47
 -12   0  -8 2498.89  155.93
 -12   0  -8 2272.49  145.55
 -12   0  -7    4.83    1.93
 -12   0  -7    4.49    1.80
 -12   0  -7    4.89    1.63
 -12   0  -7    1.93    1.16
 -12   0  -7    9.44    4.69
 -12   0  -6  624.76   43.32
 -12   0  -6  718.20   50.96
 -12   0  -6  643.67   42.61
 -12   0  -6  668.65   42.42
 -12   0  -5    2.13    1.53
 -12   0  -5    1.17    1.11
 -12   0  -5    3.34    3.38
 -12   0  -5    0.26    0.86
 -12   0  -4  429.93   30.04
 -12   0  -4  511.22   36.82
 -12   0  -4  445.35   29.42
 -12   0  -3   10.72    3.86
 -12   0  -2 1647.80  111.38
 -12   0  -1    2.98    1.10
 -12   0  -1    1.47    2.73
 -12   0   0   38.40    3.58
 -12   0   0   37.88    3.98
 -12   0   0   40.08    7.75
 -12   0   1    0.22    0.83
 -12   0   1    1.84    1.27
 -12   0   1   -1.50    2.47
 -12   0   2  794.54   52.67
 -12   0   2  851.15   53.27
 -12   0   2  827.90   59.47
  12   0  -2  871.91   59.15
  12   0  -3    8.03    3.84
 -12   0   3    3.49    1.04
 -12   0   3    4.31    1.59
 -12   0   3    6.06    3.55
 -12   0   4 6160.69  396.63
 -12   0   4 6455.29  397.29
 -12   0   4 5792.52  403.09
 -12   0   4 6943.98  402.69
  12   0  -4 6596.56  403.31
  12   0  -5    7.78    4.02
 -12   0   5    3.29    2.41
 -12   0   6  213.97   17.64
  12   0  -6  174.75   17.62
 -12   0   7    8.90    3.22
 -12   0   8   27.69    5.17
 -12   0   9    5.63    2.82
 -12   0  10  980.48   66.65
 -12   0  11    0.96    1.95
 -12   0  12  109.19   11.27
 -12   0  13    2.09    2.44
 -12   0  14 1633.51  108.05
  12   0 -14 1623.90  103.86
 -12   0  15   -1.19    2.77
  12   0 -15   -0.36    1.15
 -12   0  16 1390.25   90.67
  12   0 -16 1316.85   85.64
 -12   0  17    2.71    2.25
  12   0 -17    1.38    2.28
  12   0 -17    1.59    1.28
  12   0 -18 1831.18  129.37
  12   0 -18 1998.97  124.09
 -12   0  18 1860.07  129.29
  12   0 -19    3.97    1.44
  12   0 -19    3.12    2.60
 -12   0  20   58.28    9.96
  12   0 -20   83.53    7.28
  12   0 -20   86.11   11.60
 -12   0  21    1.69    2.43
  12   0 -21    1.73    2.03
  12   0 -21    1.42    1.42
  12   0 -22  972.82   69.37
 -12   0  22  868.86   68.21
  12   0 -22  972.12   62.46
  12   0 -23   -1.84    5.05
 -12   0  23    1.80    3.32
  12   0 -23    0.49    1.39
 -12   0  24  648.87   52.11
  12   0 -24  701.92   46.02
  12   0 -25    0.48    1.48
 -12   0  25    1.82    2.12
  12   0 -26  480.12   32.67
  12   0 -27    1.78    1.81
  12   0 -28  162.71   12.39
  12   0 -29   -1.93    1.91
  12   0 -30  187.23   13.61
  12   0 -31   -0.33    1.22
  12   0 -32  738.37   47.89
  12   0 -33    0.90    0.89
 -12  -2 -22   56.61    4.85
 -12   2 -22   75.62    5.29
 -12  -2 -21    0.70    0.89
 -12   2 -21    1.96    1.21
 -12  -2 -20   24.62    3.02
 -12   2 -20   33.88    3.63
 -12  -2 -19   13.97    2.59
 -12   2 -19   15.57    2.81
 -12  -2 -18  159.36   11.71
 -12   2 -18  142.51   11.87
 -12  -2 -17  489.89   38.30
 -12   2 -17  623.32   39.42
 -12  -2 -17  604.87   38.82
 -12   2 -17  630.60   38.84
 -12  -2 -17  570.84   38.05
 -12  -2 -16  297.08   21.09
 -12   2 -16  263.04   21.25
 -12  -2 -16  339.09   21.48
 -12  -2 -16  311.25   20.49
 -12   2 -16  258.09   20.67
 -12  -2 -15  776.59   55.10
 -12   2 -15  968.13   56.52
 -12  -2 -15  873.84   55.55
 -12   2 -15  961.96   55.69
 -12  -2 -15  825.54   54.62
 -12  -2 -15  768.45   53.68
 -12  -2 -14 1041.02   69.21
 -12   2 -14 1013.44   69.89
 -12  -2 -14 1070.35   69.60
 -12   2 -14  985.14   69.01
 -12  -2 -14 1090.94   68.61
 -12  -2 -14 1158.52   78.79
 -12   2 -14  860.25   75.14
 -12  -2 -14 1061.35   67.81
 -12  -2 -14 1178.16   69.77
 -12  -2 -13 1177.22   88.00
 -12   2 -13 1661.44   89.93
 -12  -2 -13 1303.93   88.48
 -12  -2 -13 1347.46   88.55
 -12   2 -13 1586.16   88.79
 -12  -2 -13 1334.25   87.64
 -12  -2 -13 1218.76   96.05
 -12   2 -13 1465.10   97.23
 -12  -2 -13 1320.11   86.95
 -12  -2 -12   10.62    2.40
 -12   2 -12   13.19    3.13
 -12  -2 -12    2.34    1.93
 -12  -2 -12   13.58    2.76
 -12   2 -12    7.07    2.30
 -12  -2 -12    9.60    1.92
 -12  -2 -12    4.52    3.77
 -12   2 -12    8.33    4.58
 -12  -2 -11  233.39   18.95
 -12   2 -11  296.75   20.30
 -12  -2 -11  243.21   19.14
 -12  -2 -11  279.23   19.59
 -12   2 -11  288.20   19.45
 -12  -2 -11  234.87   25.75
 -12   2 -11  293.27   26.68
 -12  -2 -11  247.82   18.07
 -12  -2 -10   44.12    5.05
 -12  -2 -10   47.55    5.26
 -12   2 -10   39.55    5.32
 -12  -2 -10   39.66    4.47
 -12   2 -10   37.20    3.72
 -12  -2 -10   36.41    4.01
 -12  -2 -10   32.45    8.37
 -12   2 -10   35.63    8.22
 -12  -2  -9  120.96   10.99
 -12   2  -9  148.24   12.05
 -12  -2  -9  146.88   11.43
 -12   2  -9  126.17   10.90
 -12  -2  -9  179.26   18.69
 -12   2  -9  155.66   17.18
 -12  -2  -9  135.65   10.88
 -12   2  -9  147.36   10.24
 -12  -2  -9  138.91   10.57
 -12  -2  -8  347.12   24.36
 -12   2  -8  356.03   25.05
 -12  -2  -8  369.24   24.13
 -12  -2  -8  383.58   24.67
 -12   2  -8  313.97   23.91
 -12  -2  -8  413.10   32.85
 -12   2  -8  293.83   29.44
 -12   2  -8  312.97   23.07
 -12  -2  -8  369.23   23.78
 -12   2  -8  364.25   23.99
 -12  -2  -7    7.73    2.18
 -12   2  -7    3.89    2.26
 -12   2  -7    4.42    1.43
 -12   2  -7    8.19    1.81
 -12  -2  -7    2.35    1.28
 -12   2  -7    3.63    1.10
 -12  -2  -7    4.17    1.49
 -12  -2  -7    3.73    4.08
 -12   2  -7   -1.71    3.48
 -12  -2  -6  117.87   10.36
 -12   2  -6  150.32   11.29
 -12  -2  -6  129.84   10.28
 -12   2  -6  128.64   10.18
 -12  -2  -6  146.51   16.58
 -12   2  -6  119.83   14.58
 -12  -2  -6  144.24   10.26
 -12   2  -6  131.86    9.66
 -12  -2  -5  132.46   11.62
 -12   2  -5  185.90   12.70
 -12   2  -5  178.10   11.84
 -12  -2  -5  137.65   16.41
 -12   2  -5  156.58   16.64
 -12  -2  -5  139.46   11.49
 -12   2  -5  172.66   11.21
 -12  -2  -5  140.44   11.38
 -12  -2  -4 1605.47  106.35
 -12   2  -4 1684.19  106.89
 -12  -2  -4 1690.27  106.22
 -12   2  -4 1570.28  105.99
 -12  -2  -4 1811.80  113.56
 -12   2  -4 1701.74  112.51
 -12  -2  -4 1779.89  106.34
 -12   2  -4 1608.10  105.58
 -12  -2  -4 1718.28  106.24
 -12  -2  -3 2134.19  144.42
 -12   2  -3 2392.56  144.43
 -12  -2  -3 2128.05  150.52
 -12   2  -3 2583.61  151.58
 -12  -2  -2 2279.27  143.54
 -12   2  -2 2181.79  143.27
 -12  -2  -2 2597.50  150.81
 -12   2  -2 2331.59  149.62
 -12  -2  -1  920.47   61.05
 -12  -2  -1  949.08   66.91
 -12   2  -1 1111.27   68.13
 -12  -2   0 1288.84   82.78
 -12   2   0 1246.82   82.87
 -12  -2   0 1308.58   82.89
 -12  -2   0 1435.29   89.42
 -12   2   0 1385.97   89.32
 -12  -2   1   66.52    5.17
  12  -2  -1   69.97    9.80
  12   2  -1   48.05    7.69
 -12   2   1   57.13    5.21
 -12  -2   1   50.07    5.01
 -12   2   1   62.37    4.89
 -12  -2   1   55.21    8.73
 -12   2   1   79.19   10.15
 -12   2   2   92.16    7.23
 -12  -2   2   97.28    7.20
 -12  -2   2   82.69   10.83
 -12   2   2   82.89    6.69
 -12   2   2   78.01   10.98
  12  -2  -2   91.66   11.58
  12   2  -2  100.47   10.96
 -12   2   3  488.94   32.32
 -12   2   3  506.47   33.16
 -12  -2   3  538.49   33.07
 -12  -2   3  497.73   38.65
 -12   2   3  475.07   38.95
 -12   2   3  481.40   32.62
  12  -2  -3  446.74   38.03
  12  -2  -4    6.70    3.68
  12   2  -4    4.68    2.17
 -12  -2   4    7.45    1.62
 -12   2   4    6.18    1.65
 -12  -2   4    8.32    4.30
 -12   2   4    3.11    3.86
 -12   2   4    1.37    0.87
 -12  -2   5  417.38   31.31
 -12   2   5  419.38   32.11
  12  -2  -5  375.53   31.90
  12   2  -5  443.84   32.28
 -12  -2   6    4.98    2.19
 -12   2   6    4.63    2.88
  12   2  -6    2.42    1.22
  12   2  -7   43.34    4.47
 -12   2   7   41.15    6.95
 -12  -2   8 1704.37  105.66
 -12   2   8 1491.79  105.74
 -12  -2   9  662.84   47.26
 -12   2   9  697.98   48.31
  12  -2 -10 1421.33   97.78
 -12  -2  10 1741.14  100.92
 -12   2  10 1527.48  101.10
  12  -2 -11 1229.95   83.51
 -12  -2  11 1301.48   85.89
 -12   2  11 1407.82   87.19
  12  -2 -12  997.95   69.01
 -12  -2  12 1173.95   71.80
 -12   2  12 1037.37   71.87
 -12  -2  13   83.03    9.69
  12  -2 -13   84.72    8.56
 -12   2  13  112.33   11.36
  12  -2 -14  222.28   19.05
 -12  -2  14  256.12   21.08
 -12   2  14  244.44   21.60
  12  -2 -14  259.03   17.49
  12   2 -14  254.79   17.59
  12  -2 -15   50.25    6.97
 -12  -2  15   68.92    8.60
  12  -2 -15   66.10    5.76
  12   2 -15   69.68    5.96
 -12   2  15   65.07    9.42
  12  -2 -16    8.74    2.68
  12  -2 -16   17.04    4.32
  12   2 -16    5.30    3.16
 -12  -2  16    9.67    3.92
  12  -2 -16   10.96    2.06
  12   2 -16   12.36    2.19
 -12   2  16    7.12    3.59
  12   2 -17   11.32    3.92
  12  -2 -17   12.93    4.04
 -12  -2  17    1.29    2.21
 -12   2  17   19.86    5.08
  12  -2 -17    7.80    1.87
  12   2 -17   10.98    2.27
  12  -2 -17   11.43    3.09
  12  -2 -18    8.26    2.89
  12   2 -18    6.03    3.35
  12  -2 -18   15.16    4.30
 -12  -2  18   17.93    5.00
 -12   2  18   13.03    4.70
  12  -2 -18   12.11    2.13
  12   2 -18    7.71    2.06
  12   2 -18    8.04    1.70
  12   2 -19   39.25    3.91
  12  -2 -19   34.50    5.85
  12  -2 -19   38.35    4.24
  12   2 -19   33.13    4.23
  12   2 -19   41.63    7.73
  12  -2 -19   45.22    7.60
 -12  -2  19   39.52    7.23
 -12   2  19   29.40    7.10
  12   2 -20   60.82    5.48
  12  -2 -20   51.13    7.88
  12  -2 -20   50.88    5.60
  12   2 -20   77.70    6.39
  12   2 -20   50.44    9.02
  12  -2 -20   62.98    9.47
 -12  -2  20   60.13    9.41
 -12   2  20   54.61    9.76
 -12   2  21  457.19   43.13
  12   2 -21  551.96   36.93
 -12  -2  21  577.67   43.72
  12   2 -21  608.01   37.90
  12  -2 -21  526.38   42.84
  12  -2 -21  551.79   37.44
  12   2 -21  596.65   44.52
  12   2 -22  674.59   43.37
  12  -2 -22  648.45   43.04
  12   2 -22  669.34   42.58
 -12  -2  22  666.05   49.37
 -12   2  22  502.25   48.53
  12   2 -22  682.26   50.21
  12  -2 -22  568.55   48.28
 -12   2  23  475.11   43.98
  12   2 -23  574.45   37.21
 -12  -2  23  614.69   44.61
  12   2 -23  558.67   44.40
  12  -2 -23  570.88   37.66
  12   2 -23  562.23   37.89
  12  -2 -23  504.13   43.17
  12   2 -24   33.36    3.82
  12   2 -24   38.55    4.56
  12  -2 -24   34.11    4.25
 -12  -2  24   35.84    7.39
 -12   2  24   35.98    8.22
  12   2 -25  592.79   40.03
  12  -2 -25  615.58   40.57
  12   2 -25  623.65   40.82
  12  -2 -26   47.53    4.85
  12   2 -26   40.00    4.36
  12   2 -26   51.95    5.12
  12   2 -27  102.82    8.42
  12  -2 -27  115.23    8.95
  12   2 -27  111.95    9.05
  12  -2 -28   32.80    3.50
  12   2 -28   21.42    3.13
  12   2 -29  210.25   15.15
  12  -2 -29  210.52   15.03
  12  -2 -30  129.10    9.34
  12   2 -30  114.22    9.23
  12  -2 -30  123.47    9.17
  12   2 -30  115.28    9.17
  12  -2 -31   95.68    7.48
  12   2 -31   93.60    7.50
  12  -2 -32  124.02    8.56
  12   2 -32  106.65    8.43
 -12  -4 -20    1.65    1.00
 -12   4 -20    0.22    1.50
 -12  -4 -19   48.54    4.20
 -12  -4 -19   42.00    4.07
 -12  -4 -18    0.28    1.54
 -12   4 -18   -1.49    1.95
 -12  -4 -18    0.81    1.07
 -12  -4 -17    2.51    1.37
 -12  -4 -17    3.92    1.42
 -12   4 -17    7.09    2.09
 -12  -4 -16    1.49    1.52
 -12   4 -16    3.53    1.87
 -12  -4 -16    3.18    1.47
 -12  -4 -16    3.32    0.93
 -12   4 -15  835.97   52.03
 -12   4 -15  762.52   50.71
 -12  -4 -15  854.55   51.09
 -12  -4 -15  749.94   50.14
 -12  -4 -15  725.08   50.82
 -12  -4 -14   12.00    2.34
 -12   4 -14    7.28    2.40
 -12  -4 -14    9.90    2.40
 -12  -4 -14   10.70    2.34
 -12  -4 -14   10.10    1.82
 -12  -4 -13  101.14    9.40
 -12   4 -13  135.82   10.84
 -12  -4 -13   93.35   13.82
 -12   4 -13  100.88   13.39
 -12  -4 -13  106.82    9.85
 -12  -4 -13  131.68    9.82
 -12   4 -13  116.19    9.37
 -12  -4 -13  125.36    9.23
 -12  -4 -12  119.67   10.23
 -12   4 -12  160.15   11.84
 -12  -4 -12   93.91   14.02
 -12  -4 -12  122.44   10.57
 -12   4 -12  143.02   10.95
 -12  -4 -12  118.40    9.96
 -12  -4 -12  118.94   10.09
 -12   4 -12  120.86    9.87
 -12   4 -12  129.69   14.91
 -12  -4 -12  121.58    9.69
 -12  -4 -11  712.32   49.32
 -12   4 -11  770.81   50.43
 -12  -4 -11  696.00   49.14
 -12  -4 -11  775.38   49.94
 -12   4 -11  866.49   50.25
 -12  -4 -11  752.55   49.38
 -12   4 -11  730.21   49.02
 -12  -4 -11  675.28   55.50
 -12   4 -11  718.59   54.90
 -12  -4 -11  738.87   48.91
 -12  -4 -10   24.46    3.76
 -12   4 -10    5.85    3.30
 -12  -4 -10   29.46    4.00
 -12   4 -10   15.72    3.38
 -12   4 -10    6.70    2.46
 -12  -4 -10   27.77    3.63
 -12  -4 -10   38.89    4.18
 -12  -4 -10   25.85    3.47
 -12  -4 -10   34.58    7.76
 -12   4 -10   17.66    5.27
 -12  -4  -9 2036.31  136.96
 -12   4  -9 2409.28  138.37
 -12   4  -9 2198.36  137.39
 -12  -4  -9 2283.56  137.58
 -12  -4  -9 2193.01  137.10
 -12  -4  -9 2042.92  143.77
 -12   4  -9 1986.24  142.40
 -12  -4  -9 2100.72  136.98
 -12   4  -9 2089.49  136.66
 -12  -4  -9 2068.99  136.73
 -12  -4  -8   23.75    3.43
 -12   4  -8    2.99    2.46
 -12   4  -8    0.48    1.60
 -12  -4  -8   11.37    2.39
 -12  -4  -8   14.36    2.61
 -12  -4  -8   13.81    4.96
 -12   4  -8    7.54    3.77
 -12  -4  -7 1837.84  115.61
 -12   4  -7 1994.50  116.57
 -12   4  -7 1815.51  115.58
 -12  -4  -7 1826.20  122.26
 -12   4  -7 1599.58  120.24
 -12  -4  -7 1722.56  115.49
 -12  -4  -7 1770.17  115.47
 -12   4  -6  102.17    9.56
 -12   4  -6   98.00    8.95
 -12  -4  -6  118.46   13.90
 -12   4  -6   91.52   12.13
 -12  -4  -6  114.70    9.30
 -12  -4  -6  126.21    9.47
 -12  -4  -6  136.17    9.69
 -12   4  -5    1.32    2.45
 -12  -4  -5    3.23    1.61
 -12   4  -5    0.50    1.49
 -12   4  -5    3.84    1.42
 -12   4  -5    3.79    1.45
 -12  -4  -5    1.67    1.30
 -12  -4  -5    1.49    3.03
 -12  -4  -5    6.10    1.81
 -12  -4  -4   22.92    2.90
 -12  -4  -4   15.04    2.55
 -12   4  -4   16.76    3.00
 -12   4  -4   12.61    2.27
 -12  -4  -4   21.60    2.94
 -12  -4  -4   14.07    4.47
 -12   4  -4    8.80    3.44
 -12  -4  -3   34.24    3.63
 -12   4  -3   28.14    3.78
 -12   4  -3   26.24    3.13
 -12  -4  -3   33.15    3.78
 -12  -4  -3   34.70    6.50
 -12   4  -3   25.27    5.48
 -12  -4  -3   20.44    3.35
 -12  -4  -3   36.61    3.82
 -12  -4  -2    1.04    1.15
  12  -4   2   -1.71    2.45
  12   4   2   -2.45    2.27
 -12   4  -2    0.55    0.72
 -12  -4  -2    3.81    2.57
 -12  -4  -2    0.42    1.20
 -12  -4  -1   86.85    7.38
 -12  -4  -1   93.34   11.02
 -12   4  -1   90.68   10.59
 -12   4  -1   87.07    7.03
 -12  -4  -1   95.82    7.88
  12  -4   1   99.61   12.28
  12   4   1  118.12   11.65
  12  -4   0    4.39    2.71
  12   4   0    1.12    1.61
 -12  -4   0    5.69    1.56
 -12   4   0    1.57    0.80
 -12   4   0    2.06    1.34
 -12  -4   0    6.01    2.99
 -12   4   0    1.15    1.91
 -12  -4   0    3.95    1.51
 -12  -4   1 1867.11  109.46
 -12   4   1 1636.21  108.57
 -12   4   1 1664.45  103.16
 -12   4   1 1444.37  103.75
 -12  -4   1 1682.60  104.20
  12  -4  -1 1635.62  109.69
  12   4  -1 1703.09  108.31
  12  -4  -2    8.99    3.53
  12   4  -2   11.75    3.43
 -12   4   2    2.37    1.23
 -12   4   2    1.87    1.32
 -12  -4   2    9.86    1.71
 -12   4   2    4.91    1.76
 -12   4   2    2.45    2.50
 -12   4   3 3827.15  256.98
 -12  -4   3 4361.75  257.01
 -12  -4   3 4148.34  262.73
 -12   4   3 4124.78  262.83
 -12   4   3 3752.01  257.38
  12   4  -3 4362.49  260.08
  12  -4  -3 4059.17  262.17
  12   4  -3 4306.57  261.69
 -12   4   3 4139.93  257.15
 -12   4   4  164.34   12.92
 -12  -4   4  233.95   13.23
 -12  -4   4  238.88   18.75
 -12   4   4  148.47   16.75
 -12   4   4  150.75   13.17
  12   4  -4  202.86   15.48
  12   4  -4  224.96   17.32
 -12   4   4  177.34   12.98
 -12   4   5 3318.72  224.27
 -12  -4   5 3708.42  224.19
 -12  -4   5 3702.75  230.32
 -12   4   5 3068.29  229.80
  12   4  -5 3666.48  226.81
 -12   4   5 3648.53  224.18
 -12   4   6    2.24    1.08
 -12  -4   6    6.63    1.30
 -12   4   6    5.43    1.37
 -12  -4   6    1.30    2.17
 -12   4   6    1.52    2.20
  12   4  -6    8.32    2.51
  12   4  -7 1109.35   79.60
 -12  -4   7 1233.45   81.67
 -12   4   7 1123.27   82.40
 -12   4   7 1273.45   77.59
 -12   4   8    4.47    1.21
 -12  -4   8    0.97    1.80
 -12   4   8   -1.22    2.85
  12   4  -8    3.36    1.67
 -12  -4   9  248.96   19.31
 -12   4   9  208.97   19.60
 -12   4   9  224.40   15.43
 -12   4  10    3.62    2.67
 -12   4  10    5.48    1.22
 -12  -4  11   11.50    3.48
 -12   4  11   18.37    4.50
 -12   4  12    2.51    2.10
 -12  -4  12    8.83    3.05
  12   4 -13  158.41   11.62
  12  -4 -13  156.91   11.60
  12   4 -13  165.26   11.87
 -12  -4  13  173.51   15.18
 -12   4  13  168.71   16.24
 -12  -4  14   54.63    7.78
 -12   4  14   60.61    8.99
  12  -4 -14   58.80    7.99
  12   4 -14   58.51    5.18
  12  -4 -14   56.06    5.12
  12   4 -14   61.91    5.42
  12  -4 -15 1625.34  111.26
  12   4 -15 1727.95  106.82
  12   4 -15 1607.11  111.45
  12  -4 -15 1656.01  110.87
  12  -4 -15 1574.67  106.69
  12   4 -15 1739.48  107.11
 -12  -4  15 1804.52  111.79
 -12   4  15 1715.29  113.28
 -12  -4  16   38.58    6.56
 -12   4  16   18.52    5.51
  12  -4 -16   34.55    6.13
  12   4 -16   34.59    3.65
  12  -4 -16   31.99    3.61
  12   4 -16   34.62    3.84
  12   4 -16   46.33    7.20
  12  -4 -16   29.45    5.69
  12  -4 -17  321.27   27.31
  12   4 -17  333.95   22.91
  12   4 -17  302.39   27.40
  12  -4 -17  305.81   26.59
 -12   4  17  305.88   28.50
  12  -4 -17  320.10   22.79
  12   4 -17  371.97   23.37
 -12  -4  18    6.82    3.23
 -12   4  18    1.73    2.91
  12  -4 -18    4.12    2.58
  12   4 -18    8.61    1.95
  12   4 -18    8.61    3.96
  12  -4 -18    6.30    3.16
  12  -4 -18   10.84    1.94
  12   4 -18    9.18    1.90
  12  -4 -19  223.13   22.72
  12   4 -19  270.74   18.75
  12  -4 -19  266.72   18.52
 -12  -4  19  313.92   24.55
 -12   4  19  218.42   23.89
  12   4 -19  287.08   24.33
  12   4 -19  274.06   18.84
  12  -4 -19  231.82   22.32
  12  -4 -20    4.49    3.27
  12   4 -20    2.07    1.41
  12   4 -20    3.09    2.86
  12  -4 -20   -1.36    3.38
  12  -4 -20    2.91    1.31
  12   4 -20    2.08    1.19
 -12  -4  20   -1.51    3.30
 -12   4  20   -5.69    4.43
  12  -4 -21    1.54    1.86
  12   4 -21    7.22    2.01
  12   4 -21   11.08    4.92
  12  -4 -21    2.80    3.50
  12  -4 -21    9.94    2.00
 -12  -4  21    4.70    3.21
 -12   4  21    7.80    4.29
 -12   4  22    9.87    5.01
  12   4 -22   13.28    2.60
  12  -4 -22   21.73    2.82
  12   4 -22   13.28    2.62
  12   4 -22   22.18    3.19
 -12  -4  22   22.43    5.87
 -12  -4  23   19.36    5.38
 -12   4  23    9.86    4.95
  12   4 -23   12.77    2.52
  12  -4 -23   11.69    2.13
  12   4 -23    9.41    2.16
  12   4 -23   12.17    2.50
  12   4 -24   30.17    3.78
  12   4 -24   38.28    4.11
  12  -4 -24   26.87    3.44
  12   4 -24   32.69    3.98
  12   4 -25  115.15    8.87
  12  -4 -25   96.49    8.30
  12   4 -25  109.51    8.65
  12   4 -26   55.08    4.99
  12   4 -26   53.12    4.82
  12   4 -27    4.22    1.56
  12   4 -27    2.95    1.53
  12  -4 -27    5.44    1.52
  12   4 -28    2.51    1.25
  12  -4 -28    3.85    1.30
  12   4 -28    1.46    1.20
  12  -4 -29   80.79    6.68
  12   4 -29   93.55    6.89
  12   4 -29   81.23    6.74
  12  -4 -30    4.28    1.21
  12   4 -30    5.04    1.23
  12   4 -30    3.18    1.03
 -12  -6 -19    2.54    0.83
 -12  -6 -18    7.44    1.33
  12   6  18    6.91    1.42
  12   6  17  849.47   54.73
 -12  -6 -16   -0.18    0.41
  12   6  16  272.86    7.67
 -12  -6 -15  718.14   47.53
 -12  -6 -15  738.85   47.11
 -12  -6 -14  515.27   32.25
 -12  -6 -14  499.71   31.82
 -12   6 -14  439.60   31.73
 -12   6 -13  806.83   47.64
 -12  -6 -13  751.80   46.68
 -12  -6 -13  738.07   46.36
 -12  -6 -12   19.93    3.15
 -12   6 -12   37.03    4.56
 -12  -6 -12   21.30    3.29
 -12  -6 -12   24.21    3.21
 -12   6 -12   34.94    3.62
 -12   6 -11    5.61    1.91
 -12  -6 -11    5.78    1.91
 -12   6 -11    6.47    2.36
 -12  -6 -11    4.71    1.74
 -12  -6 -11    8.92    2.20
 -12  -6 -10  117.64    9.85
 -12  -6 -10  116.27    9.78
 -12  -6 -10  116.15    9.71
 -12   6 -10  115.61    9.67
 -12  -6  -9  547.00   33.76
 -12   6  -9  499.16   34.14
 -12  -6  -9  482.60   33.39
 -12  -6  -9  486.27   33.43
 -12   6  -9  467.95   33.13
 -12   6  -8  429.33   28.73
 -12  -6  -8  391.80   27.92
 -12  -6  -8  408.47   28.10
 -12   6  -7    3.72    2.16
 -12  -6  -7    4.01    1.57
 -12  -6  -7    2.37    1.58
 -12   6  -6  129.26   10.71
 -12   6  -5  111.09    9.39
 -12  -6  -4  914.49   59.85
 -12   6  -4  920.08   60.17
 -12  -6  -4  925.22   60.35
 -12  -6  -3 1977.73  127.33
 -12  -6  -3 2022.99  127.95
 -12  -6  -2 2081.15  131.37
  12   6   2 1960.60  136.10
 -12  -6  -2 2082.50  131.92
  12   6   2 2048.53  134.95
 -12  -6  -1  246.07   16.97
 -12   6  -1  208.85   16.88
  12   6   1  251.91   21.24
 -12  -6  -1  267.36   17.73
  12   6   1  245.49   20.10
 -12  -6   0  758.22   52.66
  12   6   0  869.91   57.52
 -12   6   0  797.75   53.50
 -12  -6   0  889.88   53.56
  12   6   0  818.06   52.19
  12   6   0  767.75   55.65
 -12   6   1   46.94    5.28
  12   6  -1   49.63    7.52
 -12  -6   1   58.88    5.48
  12   6  -1   55.92    4.37
 -12   6   1   36.27    4.74
 -12   6   2   14.15    2.45
 -12   6   2   18.09    2.92
  12   6  -2    9.78    3.46
 -12  -6   2   10.51    2.29
 -12   6   3  604.92   44.51
 -12   6   3  589.37   42.93
  12   6  -3  647.16   46.04
 -12  -6   3  693.91   42.77
 -12   6   3  665.33   42.68
 -12   6   4  101.55   10.76
 -12   6   4  106.46    9.30
  12   6  -4   87.27   10.62
 -12  -6   4  108.15    8.82
 -12   6   4  127.50    9.09
 -12   6   5  278.04   22.24
 -12   6   5  238.88   19.95
  12   6  -5  270.68   22.55
 -12  -6   5  311.56   19.78
 -12   6   5  290.19   19.69
 -12   6   6   14.12    2.33
 -12   6   6   18.11    3.05
  12   6  -6   18.16    4.09
 -12  -6   6   14.85    2.35
 -12   6   7   99.12   11.44
  12   6  -7  113.39   11.70
 -12   6   7  118.31    9.04
 -12   6   8  998.16   72.85
 -12   6   8 1089.78   68.92
 -12   6   9  346.87   30.86
 -12   6   9  412.71   26.94
 -12   6  10 1196.03   77.02
 -12   6  11 1167.23   85.88
 -12   6  11 1320.07   82.27
 -12   6  12  126.55   13.22
 -12   6  12  126.32    9.82
  12   6 -13    4.50    1.64
 -12   6  13    5.56    1.68
  12   6 -14   38.64    4.16
 -12   6  14   32.45    3.87
  12  -6 -15   95.01   12.66
  12   6 -15   76.08    7.15
 -12   6  15   90.77    7.29
  12  -6 -16   76.02   11.28
  12   6 -16   77.52    6.41
 -12   6  16   55.72    5.73
  12  -6 -17   11.34    4.79
  12   6 -17   17.66    2.84
  12   6 -17   15.43    2.62
  12  -6 -18   33.22    4.27
  12   6 -18   25.46    3.62
  12  -6 -18   34.59    7.50
  12   6 -18   27.14    3.68
  12  -6 -19  269.58   26.93
  12   6 -19  266.80   20.26
  12  -6 -19  317.05   20.86
  12  -6 -20    3.89    2.79
  12   6 -20    4.96    1.80
  12   6 -20    1.74    1.09
  12   6 -21  753.86   50.97
  12   6 -21  787.44   50.16
  12   6 -22   28.19    3.66
  12   6 -22   25.75    2.96
  12   6 -23  128.30    9.98
  12   6 -23  114.12    9.04
  12   6 -23  137.60   10.37
  12   6 -24    6.11    1.73
  12   6 -24   12.42    2.38
  12   6 -25  230.88   15.87
  12   6 -25  207.78   15.79
  12   6 -26   17.68    2.63
  12   6 -26   19.06    2.78
  12   6 -27   46.99    4.26
  12   6 -27   35.86    3.88
  12   6 -28   43.77    4.07
  12   6 -29  279.17   18.65
 -12  -8 -17   24.75    2.24
 -12  -8 -16   69.90    5.29
 -12  -8 -15    1.23    0.87
 -12  -8 -15    1.65    0.73
  12   8  15    0.86    0.78
 -12  -8 -14   48.36    4.24
 -12  -8 -14   44.48    3.98
  12   8  14   51.00    4.31
 -12  -8 -13    1.92    1.12
 -12  -8 -13    3.22    1.15
  12   8  13    1.63    0.93
 -12  -8 -12    6.08    1.62
 -12  -8 -12    7.60    1.66
  12   8  12    6.15    1.51
 -12  -8 -11   18.59    2.67
 -12  -8 -11   24.60    3.03
 -12   8 -11   17.86    3.29
  12   8  11   22.71    2.85
 -12   8 -10 1543.63   93.47
 -12  -8 -10 1360.27   92.15
 -12  -8 -10 1366.01   92.20
  12   8  10 1529.04   92.17
 -12   8  -9    9.60    2.99
 -12  -8  -9   16.82    2.79
 -12  -8  -9   12.72    2.67
  12   8   9   11.68    2.18
 -12   8  -8 1774.33  110.12
 -12  -8  -8 1576.89  108.81
  12   8   8 1785.47  108.78
  12   8   7   90.11   11.62
 -12  -8  -7   75.68    7.19
 -12   8  -7   82.72    8.05
  12   8   7   94.14    7.20
  12   8   6  622.14   46.85
 -12  -8  -6  577.13   41.25
  12   8   6  653.30   40.81
 -12  -8  -5    0.94    1.56
  12   8   5    1.00    0.91
 -12   8  -4  177.86   13.86
  12   8   4  190.08   18.57
 -12  -8  -4  169.89   13.53
  12   8   4  176.92   12.78
 -12  -8  -3    9.02    2.10
  12   8   3   16.50    4.51
 -12  -8  -3   15.99    2.98
  12   8   3   12.24    1.95
 -12  -8  -2 1117.35   71.38
 -12   8  -2 1064.59   72.25
  12   8   2 1149.62   77.61
 -12  -8  -2 1093.51   72.13
  12   8   2 1124.70   71.13
 -12  -8  -1   35.34    3.87
  12   8   1   36.12    6.83
 -12   8  -1   26.65    4.15
 -12  -8  -1   34.66    4.44
  12   8   1   48.51    4.02
 -12  -8   0   26.15    3.08
 -12   8   0   19.45    3.34
  12   8   0   19.83    5.01
 -12  -8   0   19.89    3.26
  12   8   0   19.94    2.48
 -12   8   1   12.03    2.65
 -12  -8   1    4.51    1.52
 -12   8   1    5.27    2.07
 -12   8   1    8.45    2.15
  12   8  -1    1.39    2.01
 -12  -8   1    2.31    1.60
 -12  -8   2  498.26   32.12
  12   8  -2  483.00   37.17
 -12   8   2  461.81   32.60
 -12   8   2  472.06   33.33
 -12  -8   2  478.28   32.62
 -12   8   2  492.56   33.30
 -12   8   3   73.00    6.97
  12   8  -3   75.91    9.69
 -12   8   3   54.25    5.85
 -12  -8   3   67.86    6.12
 -12   8   3   53.35    6.24
 -12   8   4 2103.14  135.73
 -12   8   4 2103.54  136.77
  12   8  -4 2198.62  140.84
 -12  -8   4 2114.44  135.69
 -12   8   4 2171.08  136.47
 -12   8   5    2.13    1.77
  12   8  -5   -1.30    2.15
 -12   8   5    0.81    1.27
 -12  -8   5    3.53    1.49
 -12   8   6  275.67   18.66
 -12   8   6  235.82   17.02
 -12  -8   6  235.55   16.93
 -12   8   6  220.54   17.51
 -12   8   7    3.14    1.74
 -12   8   7    1.90    2.11
 -12   8   7    3.76    1.37
 -12  -8   7    4.53    1.51
 -12   8   8   41.55    5.33
 -12   8   8   36.15    4.13
 -12   8   8   46.94    5.11
 -12   8   9   30.18    4.07
 -12   8   9   23.76    4.12
 -12   8   9   26.77    3.30
 -12   8  10  585.83   39.61
 -12   8  11    9.34    2.50
  12   8 -12  188.67   13.76
 -12   8  12  177.74   14.12
  12   8 -13    0.41    1.23
 -12   8  13   -0.51    1.59
  12   8 -14  110.30    9.22
 -12   8  14  115.90    9.69
  12  -8 -15   19.03    6.40
  12   8 -15   32.63    3.59
  12   8 -15   25.15    3.41
 -12   8  15   17.96    3.26
  12  -8 -16  672.08   50.60
  12   8 -16  617.89   39.98
  12   8 -16  604.57   39.99
 -12   8  16  563.73   40.07
  12   8 -17    6.06    1.89
  12  -8 -17    3.32    1.97
 -12   8  17    6.00    1.90
  12   8 -18 1056.66   69.35
 -12   8  18  940.38   69.10
  12  -8 -19    3.47    1.85
  12  -8 -20   43.04    4.88
  12  -8 -21    0.75    1.28
  12   8 -22    4.65    1.53
  12   8 -23    3.00    1.27
  12   8 -23    1.11    1.06
  12   8 -24    2.72    1.24
  12   8 -24    4.83    1.50
  12   8 -25   13.10    1.97
  12   8 -25   12.07    1.93
  12   8 -26  178.31   11.94
  12   8 -26  162.13   11.69
  12   8 -27    2.02    0.79
 -12 -10 -14  447.84   28.60
 -12 -10 -13  149.53    9.71
 -12 -10 -13  137.93    9.58
 -12 -10 -12   13.21    1.53
 -12 -10 -12   10.74    1.46
 -12 -10 -11   22.27    2.27
 -12 -10 -11   20.45    2.30
 -12 -10 -10  180.42   12.43
 -12 -10 -10  180.12   12.57
 -12 -10  -9  210.31   15.19
  12  10   9  236.66   15.26
 -12 -10  -8  657.15   45.21
  12  10   8  742.63   45.25
 -12  10  -7   65.10    6.24
 -12 -10  -7   56.12    5.08
 -12 -10  -7   57.13    5.34
  12  10   7   63.75    5.10
 -12  10  -6   19.85    3.39
 -12 -10  -6   23.53    2.78
 -12 -10  -6   17.23    2.73
  12  10   6   25.93    2.69
 -12  10  -5   74.80    6.75
 -12 -10  -5   55.11    5.33
 -12 -10  -5   65.46    5.90
  12  10   5   66.34    5.39
 -12  10  -4  329.96   24.48
 -12 -10  -4  344.17   23.37
 -12 -10  -4  340.05   23.88
  12  10   4  362.80   23.23
 -12  10  -3  302.20   21.03
 -12 -10  -3  274.00   19.63
 -12 -10  -3  299.72   20.38
 -12  10  -2  700.17   48.19
 -12 -10  -2  746.11   47.84
 -12  10  -1  166.02   12.97
 -12 -10  -1  160.22   12.40
 -12  10   0  395.63   29.29
 -12 -10   0  456.02   29.21
 -12  10   1  111.07    9.72
 -12 -10   1  122.74    9.60
 -12  10   2  319.33   24.01
 -12 -10   2  367.30   23.95
 -12  10   3  645.09   43.36
 -12 -10   3  685.86   43.17
 -12  10   3  610.91   44.05
 -12 -10   4  121.32    8.87
 -12  10   4   98.75    9.27
 -12 -10   4  129.15    9.45
 -12  10   4  112.62   10.25
 -12 -10   5  443.73   29.78
 -12  10   5  462.10   30.57
 -12 -10   5  448.00   30.15
 -12  10   5  444.95   31.38
 -12  10   6  155.51   11.98
 -12 -10   6  163.75   11.72
 -12  10   6  148.27   12.76
 -12  10   7   26.90    4.11
 -12  10   7   31.53    3.77
 -12  10   8  772.37   51.67
 -12  10   9  223.78   17.11
  12  10 -10  716.41   46.86
  12  10 -10  746.57   47.21
 -12  10  10  686.39   48.14
  12  10 -11  207.35   15.54
  12  10 -11  226.07   15.44
 -12  10  11  219.71   16.63
  12  10 -12  175.85   12.04
  12  10 -12  160.81   12.08
 -12  10  12  144.54   12.73
  12  10 -13   21.48    2.75
  12  10 -13   26.26    3.17
  12  10 -14    7.11    1.76
  12  10 -14   11.41    2.18
 -12  10  15   29.76    3.94
  12  10 -15   29.38    3.35
  12  10 -15   25.85    3.33
  12 -10 -15   34.95    4.07
  12  10 -16  144.93   10.49
  12  10 -16  127.90   10.47
  12 -10 -16  153.80   11.35
 -12  10  16  139.67   11.10
 -12  10  17    8.91    2.09
  12  10 -17    5.41    1.51
  12  10 -17    3.87    1.57
  12 -10 -17    4.68    2.05
 -12  10  18   47.76    5.16
  12  10 -18   58.03    4.74
  12 -10 -18   42.63    4.81
 -12  10  19  111.67    8.65
  12  10 -19   96.19    7.66
  12 -10 -19   97.36    8.03
 -12  10  20    1.13    1.21
  12  10 -20    1.75    1.05
  12 -10 -20   -1.09    1.25
 -12  10  21  104.95    5.16
  12  10 -21  113.00    4.32
  12  10 -22   92.01    6.75
  12  10 -22   88.28    6.81
  12  10 -23  158.96   11.05
  12  10 -23  164.96   11.13
  12  10 -24    3.80    0.82
 -12 -12  -8    8.80    1.16
 -12 -12  -7  468.58   30.18
 -12 -12  -6    3.50    0.91
 -12 -12  -5  146.78   10.24
 -12 -12  -4   21.77    2.38
 -12 -12  -3  451.19   29.54
 -12 -12  -2    9.23    1.67
 -12 -12  -1  505.45   33.06
 -12 -12   0   12.58    1.92
 -12 -12   1  248.36   16.94
 -12 -12   2    3.43    1.20
 -12 -12   3  979.99   62.72
 -12 -12   4   57.20    4.72
 -12  12   8   12.60    2.48
 -12  12   9  373.92   25.73
 -12  12  10    0.99    1.13
  12  12 -10    1.95    1.09
 -12  12  11  120.71    8.61
  12  12 -11  102.92    7.98
 -12  12  11  102.41    8.70
 -12  12  12    0.36    1.13
  12  12 -12    3.45    1.03
  12 -12 -12    1.38    1.40
 -12  12  12    1.51    1.17
 -12  12  13  104.11    7.35
  12  12 -13   82.64    6.72
  12 -12 -13   91.00    7.32
 -12  12  13   87.38    7.35
  12 -12 -14   29.58    3.35
 -12  12  14   32.51    3.28
  12 -12 -15  116.27    8.70
  12 -12 -16    3.10    1.02
  12 -12 -17   89.12    6.53
 -13  -1 -22   57.38    4.41
 -13  -1 -21   55.33    4.62
 -13  -1 -20  139.58   10.26
 -13  -1 -19   18.87    2.70
 -13  -1 -18    3.14    1.64
 -13  -1 -17   -0.89    1.69
 -13  -1 -17    5.34    1.65
 -13  -1 -16   51.30    6.05
 -13  -1 -16   84.78    6.89
 -13  -1 -15    9.59    2.80
 -13  -1 -15   16.21    3.10
 -13  -1 -15   18.39    2.67
 -13  -1 -14  502.22   34.55
 -13  -1 -14  458.15   34.32
 -13  -1 -14  564.49   34.99
 -13  -1 -14  518.17   33.69
 -13  -1 -14  532.70   43.17
 -13   1 -14  536.57   43.04
 -13  -1 -14  481.25   32.82
 -13  -1 -13   18.36    7.15
 -13   1 -13    2.24    4.97
 -13  -1 -13   24.87    3.78
 -13  -1 -13   10.05    2.82
 -13  -1 -13   24.52    3.61
 -13  -1 -13   11.93    2.49
 -13  -1 -13   13.18    2.09
 -13  -1 -12  142.65   11.85
 -13  -1 -12  135.75   11.74
 -13   1 -12  143.11   11.69
 -13  -1 -12  162.78   12.24
 -13  -1 -12  153.85   18.91
 -13   1 -12  140.14   10.35
 -13  -1 -12  141.08   10.53
 -13   1 -12  106.50   16.28
 -13  -1 -11  242.33   17.72
 -13  -1 -11  243.07   17.69
 -13   1 -11  200.14   17.07
 -13  -1 -11  289.34   18.38
 -13  -1 -11  248.27   25.42
 -13   1 -11  215.23   16.01
 -13  -1 -11  238.71   16.37
 -13  -1 -10  199.09   15.59
 -13  -1 -10  223.10   15.84
 -13   1 -10  190.55   14.16
 -13  -1 -10  199.60   14.43
 -13  -1  -9   35.67    4.55
 -13  -1  -9   24.88    3.99
 -13  -1  -9   30.97    3.87
 -13   1  -9   41.03    3.70
 -13  -1  -9   29.11    3.55
 -13  -1  -9   17.55    6.33
 -13  -1  -8  606.05   40.91
 -13  -1  -8  628.59   40.89
 -13  -1  -8  730.06   50.47
 -13  -1  -8  671.27   40.51
 -13   1  -8  528.91   39.49
 -13  -1  -8  635.61   40.00
 -13  -1  -7  286.37   22.15
 -13  -1  -7  306.71   22.26
 -13  -1  -7  335.55   29.56
 -13  -1  -7  335.56   21.94
 -13   1  -7  323.81   21.36
 -13  -1  -7  310.49   21.48
 -13  -1  -6  118.44    9.30
 -13  -1  -6  146.11   15.64
 -13   1  -6  107.12    8.84
 -13   1  -6  106.05    8.41
 -13  -1  -6  117.20    8.81
 -13   1  -6   86.23    7.98
 -13  -1  -6  123.39    8.63
 -13  -1  -5  106.49    8.92
 -13   1  -5  110.25    8.66
 -13  -1  -5  111.42   13.85
 -13   1  -5  103.22    8.21
 -13  -1  -5  107.02    8.50
 -13   1  -5  100.76    8.03
 -13  -1  -5  111.05    8.37
 -13  -1  -4  707.60   47.40
 -13   1  -4  722.48   47.13
 -13  -1  -4  752.95   54.28
 -13   1  -4  674.76   46.64
 -13  -1  -4  755.71   47.05
 -13   1  -4  694.07   46.55
 -13  -1  -4  774.06   46.95
 -13  -1  -3   13.50    2.58
 -13   1  -3   22.11    2.55
 -13  -1  -3   16.18    5.30
 -13  -1  -3   14.28    2.40
 -13   1  -3   20.62    2.42
 -13  -1  -3   15.21    2.43
 -13  -1  -2 2145.21  121.91
 -13   1  -2 1761.55  113.28
 -13   1  -2 1754.19  113.20
 -13  -1  -2 1792.68  114.03
 -13   1  -2 1784.80  114.22
 -13  -1  -1  179.48   18.02
 -13  -1   0  713.21   47.30
 -13  -1   0  788.58   54.07
 -13  -1   1   61.11    5.10
 -13   1   1   51.27    4.74
 -13  -1   1   60.65    5.33
 -13  -1   1   61.91    9.50
 -13  -1   2  384.94   25.45
 -13   1   2  375.04   25.19
 -13  -1   2  396.75   25.81
 -13  -1   2  366.30   31.37
  13  -1  -2  375.61   31.64
 -13  -1   3   30.45    3.36
  13  -1  -3   38.79    7.59
 -13   1   3   45.59    3.51
 -13  -1   3   31.06    3.60
 -13  -1   3   26.92    7.15
 -13   1   4 2228.44  140.33
 -13  -1   4 2217.48  141.04
 -13  -1   4 2117.99  147.50
  13  -1  -4 2276.24  147.81
  13  -1  -5   10.48    3.75
 -13   1   5    7.54    1.32
 -13  -1   5    9.27    3.65
 -13  -1   5    9.65    3.49
 -13   1   6  910.17   59.31
 -13  -1   6 1018.32   65.14
  13  -1  -6  997.83   66.49
 -13   1   7   74.68    5.52
 -13  -1   7   56.78    8.38
 -13  -1   8   18.23    4.66
 -13  -1   9  797.16   55.63
 -13  -1  10 1097.77   74.47
 -13  -1  11  141.92   13.65
 -13  -1  12  251.81   21.16
 -13  -1  13  401.75   30.35
  13  -1 -13  393.26   26.43
  13   1 -13  384.14   26.43
 -13  -1  14  377.41   28.21
  13  -1 -14  356.64   24.12
  13   1 -14  341.73   24.12
 -13  -1  15  101.18   12.32
  13  -1 -15  134.72    9.82
  13   1 -15  119.87    9.66
 -13  -1  16 1705.92  108.51
  13  -1 -16 1574.47  103.14
  13   1 -16 1620.92  103.29
 -13  -1  17   89.31   12.29
  13  -1 -17  126.68    9.58
  13   1 -18  940.68   62.33
 -13  -1  18 1035.53   69.15
  13  -1 -18  982.49   68.93
  13  -1 -18 1000.45   63.32
  13   1 -19    3.13    1.07
  13  -1 -19    0.89    1.28
 -13  -1  19    3.08    2.85
  13   1 -20  139.82   10.37
 -13  -1  20  153.39   16.22
  13  -1 -20  155.19   11.44
  13   1 -21    3.04    1.31
  13  -1 -21    5.17    3.20
  13  -1 -21    7.11    2.27
 -13  -1  21    5.04    3.12
 -13  -1  22  320.15   28.17
  13  -1 -22  312.62   28.18
  13  -1 -22  310.78   22.19
 -13  -1  23  177.98   19.73
  13  -1 -23  183.11   20.18
  13  -1 -23  208.09   15.04
 -13  -1  24  143.74   16.97
 -13   1  24  151.21   17.76
  13   1 -24  157.69   17.86
  13  -1 -24  131.41   16.76
  13  -1 -24  162.01   12.27
 -13  -1  25  133.76   15.10
  13  -1 -25  110.61    9.33
 -13   1  25   92.23   13.67
  13  -1 -26   12.63    2.52
  13  -1 -27    5.15    1.77
  13  -1 -28  199.42   14.65
  13  -1 -29  114.83    9.10
  13  -1 -30   73.91    6.37
  13  -1 -31    4.39    1.35
  13  -1 -32    2.97    1.40
  13   1 -33    7.63    1.45
  13  -1 -33   12.63    1.70
 -13  -3 -20   -0.38    0.86
 -13   3 -20    0.48    0.98
 -13  -3 -19   29.67    3.26
 -13   3 -19   40.14    3.86
 -13  -3 -18   18.43    2.69
 -13   3 -18   24.75    3.24
 -13  -3 -17  135.65    9.47
 -13   3 -17  138.18   10.32
 -13   3 -16  273.64   20.08
 -13  -3 -16  297.82   20.00
 -13  -3 -16  308.76   20.35
 -13  -3 -16  268.74   20.13
 -13   3 -16  299.35   21.00
 -13   3 -15  337.39   22.43
 -13  -3 -15  296.01   21.28
 -13   3 -15  330.44   21.45
 -13  -3 -15  311.32   21.10
 -13  -3 -15  296.86   20.32
 -13  -3 -15  267.08   21.14
 -13  -3 -14   47.65    4.94
 -13   3 -14   38.33    5.20
 -13  -3 -14   34.90    4.71
 -13  -3 -14   45.71    4.79
 -13   3 -14   28.89    4.04
 -13  -3 -14   36.26    3.78
 -13  -3 -13  104.30   10.16
 -13   3 -13  152.39   11.74
 -13  -3 -13  137.33   16.91
 -13   3 -13  129.91   15.92
 -13  -3 -13  107.30   10.42
 -13  -3 -13  122.50    9.60
 -13  -3 -13  137.99   10.68
 -13   3 -13  156.21   10.80
 -13  -3 -12  140.99   12.35
 -13   3 -12  165.76   13.60
 -13  -3 -12  160.70   12.99
 -13  -3 -12  179.27   12.91
 -13   3 -12  152.07   12.41
 -13  -3 -12  157.68   18.40
 -13   3 -12  145.94   17.59
 -13  -3 -12  163.19   11.88
 -13  -3 -11  167.99   13.66
 -13   3 -11  183.38   14.72
 -13  -3 -11  182.75   13.52
 -13  -3 -11  181.70   14.13
 -13  -3 -11  205.36   14.15
 -13   3 -11  175.61   13.64
 -13  -3 -11  166.18   19.50
 -13   3 -11  146.80   18.38
 -13  -3 -11  163.48   12.88
 -13  -3 -10  110.67    9.78
 -13   3 -10   99.31   10.24
 -13   3 -10   99.83    9.40
 -13  -3 -10  116.79   10.00
 -13  -3 -10  143.18   10.34
 -13  -3 -10  145.34   16.58
 -13  -3 -10  131.93    9.82
 -13  -3 -10  125.09    9.38
 -13   3 -10  101.98    9.52
 -13   3 -10   91.67   13.73
 -13  -3  -9  867.84   61.10
 -13   3  -9  982.19   62.32
 -13  -3  -9  951.02   61.58
 -13   3  -9  990.21   61.24
 -13  -3  -9  880.90   68.26
 -13   3  -9  947.81   68.12
 -13  -3  -9  905.85   60.95
 -13  -3  -9  929.78   60.66
 -13  -3  -8   15.32    3.16
 -13   3  -8   33.83    4.78
 -13  -3  -8   31.70    4.19
 -13   3  -8   20.91    3.21
 -13   3  -8   31.64    3.85
 -13  -3  -8   23.34    3.44
 -13  -3  -8   20.73    3.07
 -13  -3  -8    7.67    5.20
 -13   3  -8   15.96    6.03
 -13  -3  -7  341.32   24.30
 -13   3  -7  367.44   25.17
 -13   3  -7  338.20   24.03
 -13  -3  -7  330.31   30.29
 -13   3  -7  306.61   29.19
 -13  -3  -7  356.52   24.24
 -13   3  -7  351.75   24.07
 -13  -3  -7  349.89   24.00
 -13   3  -6   10.13    2.16
 -13  -3  -6   11.76    2.50
 -13   3  -6   12.04    2.93
 -13   3  -6   14.17    2.40
 -13  -3  -6    6.84    2.00
 -13  -3  -6   18.07    2.70
 -13  -3  -6    6.99    3.31
 -13   3  -6   17.93    5.09
 -13  -3  -5    7.77    2.17
 -13   3  -5   13.01    2.93
 -13   3  -5    9.78    1.96
 -13  -3  -5    7.44    1.97
 -13  -3  -5   13.21    4.57
 -13   3  -5    6.21    3.90
 -13  -3  -5   13.10    2.37
 -13  -3  -4  305.49   19.11
 -13   3  -4  235.75   18.46
 -13  -3  -4  269.41   24.23
 -13   3  -4  256.12   23.65
 -13  -3  -4  292.72   19.09
 -13   3  -4  255.85   18.17
 -13  -3  -4  285.78   19.13
 -13   3  -4  248.48   19.33
 -13  -3  -3 1390.04   87.46
 -13   3  -3 1373.60   87.14
 -13  -3  -3 1354.46   93.38
 -13   3  -3 1356.16   93.15
 -13  -3  -3 1402.66   87.50
 -13   3  -3 1353.22   86.80
 -13  -3  -3 1257.86   87.37
 -13   3  -3 1410.04   88.14
 -13  -3  -2  807.16   47.95
 -13   3  -2  690.60   47.35
 -13  -3  -2  777.29   53.85
 -13   3  -2  682.79   52.76
 -13  -3  -2  802.12   47.93
 -13   3  -2  654.25   47.08
 -13  -3  -2  784.51   48.13
 -13  -3  -2  755.81   47.97
 -13   3  -2  684.05   48.21
 -13  -3  -1 1292.24   79.76
 -13  -3  -1 1303.67   85.68
 -13   3  -1 1255.11   85.43
 -13   3  -1 1205.88   79.25
 -13  -3  -1 1235.49   79.60
 -13   3  -1 1236.23   79.18
 -13  -3  -1 1282.35   79.97
  13  -3   1 1427.44   88.80
  13   3   1 1160.63   84.48
 -13  -3  -1 1164.47   79.71
 -13   3  -1 1264.92   80.31
 -13  -3   0   19.08    2.52
  13  -3   0    1.74    2.59
  13   3   0   17.88    4.89
 -13   3   0   10.06    1.76
 -13  -3   0   20.82    5.18
 -13   3   0    4.21    2.69
 -13   3   0   11.00    1.84
 -13  -3   0   19.00    2.62
 -13  -3   1   86.04    7.44
  13  -3  -1   86.03   11.98
 -13   3   1   92.07    7.51
 -13  -3   1   92.14    7.42
 -13  -3   1   90.00   11.25
 -13   3   1  106.22   12.21
 -13   3   1  102.43    7.23
 -13   3   1   90.85    7.36
 -13  -3   1  101.90    7.91
  13   3  -1   98.54   11.19
  13  -3  -2   52.20    8.52
 -13   3   2   40.08    4.20
 -13  -3   2   53.33    4.44
 -13   3   2   43.09    3.84
 -13   3   2   36.53    4.03
 -13  -3   2   46.23    8.08
 -13   3   2   48.19    8.06
 -13   3   3  563.31   38.97
 -13  -3   3  602.61   38.86
 -13  -3   3  628.77   44.97
 -13   3   3  634.57   46.16
 -13   3   3  582.27   38.85
  13  -3  -3  672.35   45.93
  13   3  -3  622.12   44.01
 -13   3   4  639.01   42.88
 -13  -3   4  702.64   42.75
 -13  -3   4  766.25   49.83
 -13   3   4  670.87   49.79
 -13   3   4  580.84   42.55
  13  -3  -4  702.37   49.07
  13   3  -4  751.27   48.46
 -13   3   5  805.90   50.81
 -13  -3   5  799.61   50.47
 -13  -3   5  719.36   56.29
 -13   3   5  675.67   56.58
 -13   3   5  732.88   50.40
  13   3  -5  824.40   52.22
  13  -3  -5  801.14   56.37
  13   3  -5  813.67   55.58
 -13  -3   6   18.08    2.40
 -13   3   6   20.15    2.68
 -13  -3   6   11.62    4.15
 -13   3   6   24.22    5.84
  13   3  -6   14.28    2.91
 -13   3   6   20.81    2.35
  13   3  -7  364.57   27.05
 -13  -3   7  370.83   29.86
 -13   3   7  358.26   30.69
 -13   3   7  409.04   25.65
 -13   3   8   -1.33    2.69
  13   3  -8    0.96    1.05
 -13  -3   8    1.08    2.18
 -13  -3   9 2082.65  129.69
 -13   3   9 1848.86  130.35
 -13  -3  10  255.64   18.98
 -13   3  10  166.05   18.15
 -13  -3  11 4246.43  259.94
 -13   3  11 3825.84  260.72
  13  -3 -12  260.90   19.87
  13  -3 -12  233.67   17.67
  13   3 -12  283.51   18.11
 -13  -3  12  311.49   22.31
 -13   3  12  212.48   21.57
  13  -3 -13  556.76   39.92
  13  -3 -13  588.02   37.79
  13   3 -13  547.59   37.80
 -13  -3  13  650.05   42.43
 -13   3  13  565.74   43.03
  13  -3 -14  130.24   12.15
  13  -3 -14  134.35   10.06
  13   3 -14  125.74   10.11
 -13  -3  14  164.23   14.44
 -13   3  14  122.24   14.15
 -13  -3  15   13.29    3.78
 -13   3  15   22.66    5.42
  13  -3 -15   16.10    3.65
  13  -3 -15   22.05    2.82
  13   3 -15   16.61    2.69
 -13  -3  16   21.70    5.24
 -13   3  16   15.99    4.96
  13  -3 -16   17.26    4.12
  13   3 -16   28.53    5.78
  13  -3 -16   28.53    5.50
  13  -3 -16   21.92    2.90
  13   3 -16   22.98    3.17
  13  -3 -17   88.36   10.30
 -13  -3  17   95.82   11.63
  13   3 -17  132.45   13.36
  13  -3 -17   93.96   11.35
 -13   3  17  103.18   13.11
  13  -3 -17   91.50    7.92
  13   3 -17   99.25    8.20
 -13  -3  18  419.18   30.91
 -13   3  18  340.69   31.10
  13   3 -18  387.26   30.93
  13  -3 -18  353.65   29.59
  13  -3 -18  381.88   25.09
  13   3 -18  338.45   25.10
 -13   3  19    1.88    3.85
  13   3 -19   11.18    4.21
  13  -3 -19   15.90    4.81
  13   3 -19   10.86    2.10
  13  -3 -19    6.03    1.83
  13   3 -19   12.05    2.42
 -13  -3  19   16.56    5.16
  13   3 -20  111.77    8.63
  13  -3 -20   99.08   12.67
  13  -3 -20  104.12    8.67
  13   3 -20  114.24    9.09
  13   3 -20   87.92   12.58
 -13  -3  20  100.89   13.13
 -13   3  20   80.72   13.36
  13  -3 -21  817.74   53.77
  13   3 -21  829.74   53.67
 -13  -3  21  969.37   61.66
 -13   3  21  695.72   60.65
  13   3 -21  760.69   59.91
  13  -3 -21  858.06   60.02
  13   3 -21  817.98   54.04
  13   3 -22   70.24    6.24
  13  -3 -22   72.82    6.39
  13   3 -22   64.73    6.38
  13   3 -22   55.64    9.81
  13  -3 -22   67.88   10.23
 -13  -3  22   60.30   10.11
 -13   3  22   62.25   11.12
 -13   3  23  121.02   16.53
  13   3 -23  145.38   11.05
  13  -3 -23  153.67   11.25
 -13  -3  23  152.36   16.72
  13   3 -23  148.20   11.41
  13  -3 -23  100.28   14.30
 -13  -3  24   57.30    9.16
 -13   3  24   62.15   10.39
  13   3 -24   45.95    4.71
  13  -3 -24   51.17    4.99
  13   3 -24   36.50    4.72
  13   3 -25  211.08   15.70
  13  -3 -25  220.98   15.86
  13   3 -25  226.11   16.08
  13  -3 -26   32.48    3.60
  13   3 -26   23.53    3.11
  13   3 -26   21.66    3.20
  13   3 -27   17.05    2.49
  13  -3 -27   14.58    2.36
  13   3 -27   18.31    2.74
  13   3 -28    3.86    1.28
  13  -3 -28    0.33    1.32
  13   3 -28    3.11    1.43
  13  -3 -29   32.68    3.60
  13   3 -29   37.84    3.84
  13  -3 -30   51.74    4.52
  13   3 -30   44.27    4.36
  13  -3 -31  121.30    8.57
  13   3 -31  109.93    8.43
 -13  -5 -18   31.96    2.29
  13   5  18   32.35    2.43
 -13   5 -17   -0.26    0.73
 -13  -5 -17    2.19    1.06
 -13  -5 -16   56.83    3.31
 -13   5 -16   57.49    3.91
 -13  -5 -15    8.30    1.73
 -13   5 -15    7.29    2.03
 -13  -5 -15    6.05    1.35
 -13  -5 -14    2.30    1.37
 -13   5 -14    3.06    2.05
 -13  -5 -14    3.22    1.52
 -13  -5 -14    2.54    1.06
 -13   5 -13    7.31    2.21
 -13  -5 -13   16.78    2.48
 -13   5 -13   20.68    3.23
 -13  -5 -13   17.34    2.74
 -13  -5 -13   14.68    2.31
 -13   5 -13    9.56    1.95
 -13  -5 -13   10.49    2.27
 -13  -5 -13   11.36    2.03
 -13  -5 -12  143.13   10.65
 -13   5 -12  135.40   10.81
 -13  -5 -12  125.57    9.81
 -13   5 -12  109.22    9.50
 -13  -5 -12  127.91   10.07
 -13  -5 -12  134.75    9.91
 -13  -5 -12  117.44    9.87
 -13   5 -12  134.24   10.74
 -13  -5 -11  295.39   19.11
 -13   5 -11  284.01   19.32
 -13  -5 -11  255.42   18.15
 -13   5 -11  248.26   17.97
 -13  -5 -11  260.13   18.46
 -13  -5 -11  235.93   18.09
 -13  -5 -11  245.48   18.29
 -13   5 -11  258.35   18.99
 -13   5 -10   64.30    9.41
 -13  -5 -10   59.66    6.36
 -13   5 -10  102.32    7.74
 -13  -5 -10   58.40    5.90
 -13   5 -10   74.83    6.07
 -13  -5 -10   58.89    6.05
 -13  -5 -10   50.73    5.78
 -13  -5 -10   57.26    6.03
 -13   5 -10   90.15    7.46
 -13  -5  -9 1355.28   81.86
 -13   5  -9 1304.10   81.97
 -13  -5  -9 1331.05   81.15
 -13   5  -9 1163.09   80.67
 -13   5  -9 1087.53   85.46
 -13  -5  -9 1207.06   81.27
 -13  -5  -9 1260.28   81.28
 -13  -5  -9 1269.02   81.29
 -13   5  -9 1293.91   81.89
 -13  -5  -8   32.38    4.53
 -13  -5  -8   41.72    4.66
 -13   5  -8   75.42    5.40
 -13  -5  -8   29.65    4.57
 -13  -5  -8   33.73    4.66
 -13   5  -8   70.17    6.16
 -13  -5  -8   37.08    7.34
 -13   5  -8   67.00    9.02
 -13   5  -8   87.52    6.70
 -13   5  -7 1836.09  113.52
 -13   5  -7 1730.54  112.48
 -13  -5  -7 1763.52  118.81
 -13   5  -7 1599.92  117.40
 -13  -5  -7 1729.52  113.06
 -13  -5  -7 1801.03  113.21
  13  -5   7 1924.81  123.85
 -13  -5  -7 1726.55  112.93
 -13   5  -7 1821.04  113.51
 -13  -5  -6   11.12    2.54
  13  -5   6   32.26    8.02
  13   5   6   13.71    4.48
 -13   5  -6   30.34    3.71
 -13   5  -6   22.49    3.38
 -13  -5  -6   14.78    2.82
 -13  -5  -6   15.66    2.91
 -13  -5  -6    8.86    4.18
 -13   5  -6   18.66    5.15
 -13   5  -5  502.23   34.80
 -13  -5  -5  538.15   40.01
 -13   5  -5  449.68   38.20
 -13  -5  -5  533.11   34.83
  13  -5   5  526.62   42.76
  13   5   5  491.10   39.51
 -13  -5  -5  530.73   34.69
 -13   5  -5  522.90   34.96
  13  -5   4    1.89    3.14
  13   5   4    1.39    2.31
 -13   5  -4    3.17    1.65
 -13  -5  -4    4.16    1.70
 -13   5  -4    5.54    1.78
 -13  -5  -4    5.51    1.70
 -13  -5  -4    4.13    3.22
 -13   5  -4    2.49    2.08
 -13  -5  -3  303.53   20.71
 -13   5  -3  311.06   24.71
 -13   5  -3  302.16   20.74
 -13  -5  -3  273.83   24.59
 -13  -5  -3  287.54   20.60
 -13  -5  -3  303.57   21.07
  13  -5   3  255.97   26.14
  13   5   3  301.54   25.19
 -13   5  -3  286.83   20.72
 -13  -5  -2  399.11   27.95
 -13  -5  -2  420.92   32.36
 -13   5  -2  450.74   32.27
 -13  -5  -2  407.50   27.97
 -13  -5  -2  424.37   28.51
  13  -5   2  429.22   34.41
  13   5   2  407.96   32.27
 -13   5  -2  406.57   28.07
 -13  -5  -1  463.03   30.03
 -13  -5  -1  499.76   34.76
 -13   5  -1  423.03   33.47
 -13  -5  -1  458.87   29.95
 -13  -5  -1  460.14   30.48
  13  -5   1  407.15   35.11
  13   5   1  446.66   34.14
 -13   5  -1  406.90   29.84
  13  -5   0    2.91    2.97
  13   5   0    4.72    2.61
 -13   5   0    8.40    1.92
 -13  -5   0    4.34    1.51
 -13   5   0    8.96    2.09
 -13  -5   0    7.06    3.09
 -13  -5   0    3.76    1.37
 -13   5   0    4.43    2.61
 -13  -5   0    7.14    2.05
 -13  -5   1  167.56   11.84
 -13  -5   1  149.60   15.02
 -13   5   1  153.37   14.95
 -13   5   1  154.51   12.07
  13   5  -1  185.92   15.44
 -13  -5   1  162.54   11.62
 -13  -5   1  171.62   12.35
  13  -5  -1  149.71   15.72
  13   5  -1  190.92   16.00
 -13   5   1  131.62   11.48
  13   5  -2   44.13    6.03
 -13  -5   2   28.94    5.42
 -13   5   2   19.25    4.70
 -13   5   2   19.65    3.33
 -13  -5   2   29.56    3.67
  13  -5  -2   30.76    5.86
  13   5  -2   35.53    5.61
 -13  -5   3 2117.29  121.57
 -13   5   3 1755.45  120.39
 -13   5   3 1639.88  116.38
  13   5  -3 1958.37  119.74
 -13  -5   3 1941.77  116.51
 -13   5   3 1771.67  116.11
 -13   5   4  554.83   39.22
 -13  -5   4  623.25   44.30
 -13   5   4  702.80   45.28
 -13   5   4  581.20   40.26
  13   5  -4  617.54   42.79
 -13  -5   4  604.29   39.91
 -13   5   4  659.09   39.93
 -13   5   5 1690.56  112.76
 -13  -5   5 2138.74  119.49
 -13   5   5 1835.46  118.77
 -13   5   5 1602.51  113.61
  13   5  -5 1889.03  116.36
 -13  -5   5 1817.21  113.32
 -13   5   5 1846.99  113.24
 -13   5   6   23.68    2.92
 -13  -5   6   29.87    5.65
 -13   5   6   25.74    2.74
 -13   5   6   21.49    5.22
  13   5  -6   22.53    4.29
 -13  -5   6   18.41    2.71
 -13   5   6   19.83    3.16
 -13   5   7   65.78    6.11
  13   5  -7   73.96    8.34
 -13  -5   7   72.04    6.37
 -13   5   7   77.25   10.57
 -13   5   7   83.68    6.44
 -13  -5   8   30.00    3.16
 -13   5   8   19.65    2.93
 -13  -5   8   27.90    6.18
 -13   5   8   24.56    6.24
  13   5  -8   21.40    4.05
 -13   5   8   25.30    2.95
 -13   5   9  431.43   41.05
 -13  -5   9  474.35   40.67
 -13   5   9  530.18   40.93
 -13  -5   9  553.16   39.92
 -13   5   9  590.80   35.95
 -13   5  10   10.57    1.76
 -13  -5  10    6.53    3.17
  13   5 -10    7.62    1.56
 -13   5  10   12.36    4.43
 -13  -5  11 1108.75   72.85
 -13   5  11 1049.39   74.11
  13   5 -11 1034.21   68.28
 -13   5  11 1088.69   68.40
 -13  -5  12    8.86    3.21
 -13   5  12   14.21    4.26
  13   5 -12    4.83    1.40
 -13   5  12   11.01    1.88
  13   5 -13   69.38    5.99
 -13  -5  13   53.09    8.16
 -13   5  13   77.04   10.28
  13   5 -13   67.77    5.85
 -13   5  14  104.92   12.90
 -13  -5  14  108.04   11.93
  13  -5 -14  105.28   12.27
  13   5 -14  106.40    8.44
  13   5 -14   88.96   10.86
  13  -5 -14   95.84   10.94
  13   5 -14  112.78    8.43
 -13   5  15  371.91   32.89
  13   5 -15  397.81   31.65
  13  -5 -15  366.69   30.78
  13  -5 -15  366.90   32.05
  13   5 -15  424.09   27.85
  13  -5 -15  381.42   27.34
  13   5 -15  468.79   27.87
 -13  -5  15  469.46   32.69
  13  -5 -16  102.80   12.42
  13   5 -16  110.93    8.77
  13   5 -16  116.90   12.42
  13  -5 -16  110.51   11.76
  13  -5 -16  103.69    8.37
  13   5 -16  107.01    8.58
 -13   5  16   99.87   13.30
 -13  -5  16  115.92   12.54
  13  -5 -17 1232.24   89.20
  13   5 -17 1326.72   83.89
  13   5 -17 1329.86   88.71
  13  -5 -17 1222.36   87.65
  13  -5 -17 1231.76   83.37
  13   5 -17 1360.11   83.73
 -13  -5  17 1436.47   89.46
 -13   5  17 1349.01   90.99
  13  -5 -18  597.05   46.19
  13   5 -18  607.34   40.65
  13   5 -18  605.21   45.32
  13  -5 -18  561.21   44.34
  13  -5 -18  598.30   40.20
  13   5 -18  639.67   40.53
 -13  -5  18  688.22   46.53
 -13   5  18  625.05   47.61
  13  -5 -19  433.98   31.08
  13  -5 -19  451.39   37.12
  13   5 -19  481.09   31.82
  13   5 -19  475.90   36.53
  13  -5 -19  441.12   35.51
  13   5 -19  510.75   31.57
 -13  -5  19  546.06   37.98
 -13   5  19  415.89   37.74
  13   5 -20    9.76    2.19
  13   5 -20    6.91    4.89
  13  -5 -20   10.91    1.85
  13   5 -20   11.69    2.07
  13   5 -21  124.62    9.70
  13   5 -21  123.15    9.25
  13  -5 -21  107.31    8.89
 -13   5  21  110.79   14.56
  13   5 -22   14.66    2.71
  13  -5 -22   13.25    2.21
  13   5 -22   13.73    2.36
  13   5 -23  288.74   21.29
  13  -5 -23  275.27   20.63
  13   5 -23  331.37   21.08
  13   5 -23  337.50   21.77
  13   5 -24   77.35    6.47
  13  -5 -24   60.28    5.60
  13   5 -24   68.90    5.86
  13   5 -24   64.94    6.27
  13   5 -25    3.20    1.59
  13   5 -25    2.09    1.11
  13  -5 -25    2.26    1.10
  13   5 -25    0.80    1.21
  13   5 -26   15.18    2.54
  13  -5 -26   17.15    2.21
  13   5 -26   13.83    2.11
  13   5 -27  374.73   25.91
  13  -5 -27  380.94   25.41
  13   5 -27  396.94   25.48
  13   5 -28   78.38    4.22
  13   5 -28   -0.21    0.53
  13   5 -29   -0.16    0.26
  13   5 -29  571.30    9.85
 -13  -7 -16  442.89   28.82
 -13  -7 -15  304.22   19.87
 -13  -7 -15  282.19   19.44
  13   7  15  310.74   19.93
 -13  -7 -14 1211.56   78.09
 -13  -7 -14 1162.29   77.76
  13   7  14 1317.31   78.21
 -13  -7 -13  418.52   28.61
 -13  -7 -13  418.94   28.41
  13   7  13  458.90   28.73
 -13   7 -12  189.46   12.95
 -13  -7 -12  164.90   11.86
 -13  -7 -12  149.43   11.59
  13   7  12  154.37   11.72
 -13  -7 -11   10.97    2.17
 -13  -7 -11   11.34    2.07
  13   7  11   13.18    2.15
 -13   7 -10   13.90    2.91
 -13  -7 -10   12.78    2.40
 -13  -7 -10   12.13    2.44
  13   7  10   13.31    2.23
 -13   7  -9   14.67    2.90
 -13  -7  -9   16.51    2.67
 -13  -7  -9   12.30    2.58
  13   7   9   13.91    2.35
 -13  -7  -8   42.12    4.61
 -13   7  -8   60.56    5.89
  13   7   8   42.90    7.79
 -13  -7  -8   45.60    4.70
 -13  -7  -8   37.31    4.62
  13   7   8   44.79    4.47
 -13   7  -7  134.45   11.27
  13   7   7  140.15   15.33
 -13  -7  -7  124.66   10.46
  13   7   7  143.28   10.37
 -13   7  -6  381.44   26.80
  13   7   6  452.71   32.74
 -13  -7  -6  352.64   25.94
  13   7   6  390.32   25.74
  13   7   5  110.76   12.83
 -13  -7  -5   93.26    8.24
 -13  -7  -5  106.43    8.83
 -13   7  -5   88.25    8.68
  13   7   5  105.85    8.04
  13   7   4 1769.94  118.79
 -13  -7  -4 1702.41  112.59
 -13  -7  -4 1771.83  113.14
  13   7   4 1801.17  112.24
 -13  -7  -3  254.19   18.85
  13   7   3  266.62   23.96
 -13  -7  -3  269.80   19.54
  13   7   3  283.68   18.65
 -13  -7  -2 1629.83  104.80
 -13   7  -2 1593.63  105.33
  13   7   2 1645.85  110.49
 -13  -7  -2 1619.31  105.38
  13   7   2 1681.02  104.34
 -13  -7  -1  547.52   35.71
 -13   7  -1  513.03   36.05
  13   7   1  495.90   40.27
 -13  -7  -1  546.80   36.27
  13   7   1  543.14   35.11
 -13  -7   0 1299.99   83.70
  13   7   0 1274.98   88.78
 -13  -7   0 1330.24   84.30
 -13   7   0 1265.55   84.10
  13   7   0 1314.05   83.04
 -13  -7   1   42.24    4.38
 -13   7   1   42.37    4.60
 -13   7   1   42.73    5.08
  13   7  -1   33.38    6.41
 -13  -7   1   34.95    4.41
 -13   7   2   84.36    7.47
 -13  -7   2   86.42    6.86
 -13   7   2   76.03    6.94
  13   7  -2   69.77    9.52
 -13  -7   2   70.76    6.93
 -13   7   2   74.04    7.45
 -13  -7   3  122.48    9.62
 -13   7   3  108.09   10.02
 -13   7   3  109.26    9.35
 -13   7   3  118.83    9.86
 -13   7   4  105.92    8.88
 -13   7   4   84.53    7.73
  13   7  -4  104.40   11.33
 -13  -7   4   95.11    7.93
 -13   7   4   88.35    8.10
 -13   7   5   90.09    8.92
  13   7  -5   98.02   11.14
 -13  -7   5  113.22    8.50
 -13   7   5   96.21    8.53
 -13   7   6  297.61   21.73
  13   7  -6  285.36   24.07
 -13  -7   6  301.82   20.51
 -13   7   6  287.26   20.93
 -13   7   7    8.73    2.20
 -13   7   7    6.70    2.16
  13   7  -7    2.30    1.93
 -13  -7   7    4.52    1.38
 -13   7   8  279.53   22.16
 -13   7   8  327.03   21.76
 -13   7   9  466.40   31.72
 -13   7  10 1245.40   80.59
 -13   7  11  383.52   26.47
 -13   7  12  547.52   36.75
  13   7 -13   72.08    6.58
 -13   7  13   74.46    6.81
  13   7 -14    3.74    1.47
 -13   7  14    2.64    1.47
  13  -7 -15   49.33    9.46
  13   7 -15   45.89    4.93
 -13   7  15   47.50    5.01
  13   7 -16  828.77   55.87
 -13   7  16  848.23   55.80
  13   7 -17    6.91    1.97
  13   7 -17    6.16    1.97
  13   7 -18   16.03    2.75
  13  -7 -18   16.24    5.67
  13   7 -18   14.19    2.73
  13  -7 -18   24.65    3.64
  13   7 -19   25.09    3.40
  13  -7 -19   20.99    3.61
  13   7 -20   19.26    2.97
  13  -7 -20   16.94    2.88
  13   7 -21  156.47   11.98
  13   7 -22  593.95   39.45
  13   7 -23  267.04   17.93
  13   7 -23  236.14   17.87
  13   7 -24  370.21   25.15
  13   7 -24  369.02   25.22
  13   7 -25   70.84    5.90
  13   7 -25   62.54    5.76
  13   7 -26   97.86    7.47
  13   7 -26   91.55    7.27
  13   7 -27   58.80    4.95
  13   7 -28   57.45    4.67
 -13  -9 -15   19.09    1.72
 -13  -9 -14   16.26    1.70
 -13  -9 -13    0.99    0.71
 -13  -9 -13   -0.29    0.57
 -13  -9 -12   15.00    1.87
 -13  -9 -12   15.48    1.88
 -13  -9 -11   66.25    5.18
 -13  -9 -11   60.97    5.12
  13   9  11   62.58    5.08
 -13  -9 -10  444.72   30.05
 -13   9 -10  456.28   31.02
 -13  -9 -10  446.10   30.15
  13   9  10  482.26   30.05
 -13  -9  -9   74.27    6.56
 -13  -9  -9   78.34    6.75
  13   9   9   88.51    6.64
 -13   9  -8 1027.00   68.52
 -13  -9  -8 1010.06   67.38
  13   9   8 1099.35   67.33
 -13  -9  -7  528.24   36.39
  13   9   7  578.14   36.31
 -13  -9  -6  323.56   22.60
 -13  -9  -6  324.15   22.96
  13   9   6  348.62   22.47
 -13   9  -5    1.62    1.90
 -13  -9  -5    1.65    1.32
 -13  -9  -5    2.45    1.63
  13   9   5    3.91    1.21
 -13   9  -4   32.42    4.35
 -13  -9  -4   32.69    3.59
 -13  -9  -4   28.11    3.79
  13   9   4   32.67    3.37
 -13   9  -3    9.17    2.52
 -13  -9  -3   16.28    2.42
 -13  -9  -3   17.50    2.90
  13   9   3   19.02    2.31
 -13  -9  -2  432.18   29.34
 -13   9  -2  432.33   30.45
 -13  -9  -2  459.14   30.15
 -13  -9  -1  162.99   11.50
 -13   9  -1  157.42   12.49
  13   9   1  163.12   16.42
 -13  -9  -1  141.32   11.31
 -13  -9  -1  168.87   12.28
 -13  -9   0    2.88    1.16
  13   9   0    4.26    2.63
 -13   9   0    0.52    1.42
 -13  -9   0    2.25    1.58
 -13  -9   1   49.71    4.74
 -13   9   1   60.10    5.72
  13   9  -1   53.30    8.21
 -13  -9   1   40.83    4.95
 -13  -9   2 1251.22   79.02
  13   9  -2 1226.45   84.61
 -13  -9   2 1260.30   79.66
 -13   9   2 1172.55   79.77
 -13   9   3  356.61   24.81
 -13  -9   3  316.18   23.20
 -13   9   3  415.10   25.32
  13   9  -3  325.42   28.07
 -13  -9   3  319.71   23.64
 -13   9   3  364.01   24.25
 -13  -9   4 3580.18  215.80
 -13   9   4 3491.63  217.38
 -13   9   4 3196.86  216.25
  13   9  -4 3495.67  221.45
 -13  -9   4 3460.32  216.10
 -13   9   4 3236.05  217.05
 -13   9   5  149.99   11.66
 -13  -9   5  124.01   11.01
 -13   9   5  159.16   12.48
 -13   9   6 2014.93  130.84
 -13  -9   6 2026.29  130.43
 -13   9   6 2144.31  132.10
 -13   9   6 2050.81  131.76
 -13   9   7   90.37    8.35
 -13   9   7   76.73    7.18
 -13   9   7   88.68    8.12
 -13   9   8  122.10   10.81
 -13   9   8  137.12    9.86
 -13   9   8  102.60   10.16
 -13   9   9  438.27   30.91
 -13   9   9  444.31   29.45
 -13   9   9  423.87   30.41
 -13   9  10  101.21    9.70
 -13   9  10  111.53    9.62
 -13   9  11    0.65    2.14
  13   9 -11   -0.38    1.24
 -13   9  12   16.06    3.03
 -13   9  12   14.19    3.30
  13   9 -12    6.19    1.83
 -13   9  13  111.00    9.73
  13   9 -13  117.71    8.63
 -13   9  14  902.55   59.61
  13   9 -14  935.56   58.28
  13   9 -14  914.97   58.33
 -13   9  14  816.98   58.74
  13   9 -15  120.59    8.80
  13   9 -15  108.91    8.74
 -13   9  15   91.00    8.92
  13   9 -16 2238.53  131.35
  13  -9 -16 2192.42  132.25
  13   9 -16 2120.94  131.33
 -13   9  16 1739.06  131.30
 -13   9  17   29.03    3.83
  13   9 -17   31.89    3.70
  13   9 -17   31.94    3.77
  13  -9 -17   30.84    4.29
  13   9 -18 1574.97  102.06
  13   9 -18 1554.33  102.10
  13  -9 -18 1685.88  102.86
  13   9 -19    5.40    1.66
  13  -9 -19    4.66    1.88
  13   9 -20  110.14    8.79
  13  -9 -20  120.15    9.20
  13  -9 -21   -0.28    0.33
  13   9 -23   27.30    2.95
  13   9 -24    7.58    1.32
  13   9 -25    6.63    1.19
  13   9 -26   97.17    6.84
 -13 -11 -10    2.33    0.60
 -13 -11  -8   22.80    2.08
 -13 -11  -7   20.97    1.98
 -13 -11  -7   19.75    2.25
 -13 -11  -6    2.65    0.75
 -13 -11  -6    2.74    1.03
 -13  11  -5   28.25    3.42
 -13 -11  -5   23.85    2.37
 -13 -11  -5   25.47    2.82
 -13  11  -4  205.66   15.69
 -13 -11  -4  229.11   15.30
 -13  11  -3 1155.90   74.61
 -13 -11  -3 1152.29   73.99
 -13  11  -2  683.05   49.11
 -13 -11  -2  808.58   48.86
 -13  11  -1  837.36   54.25
 -13 -11  -1  820.25   53.65
 -13  11   0  262.40   20.03
 -13 -11   0  307.12   19.82
 -13  11   1  166.40   12.74
 -13 -11   1  169.94   12.31
 -13  11   2   -0.41    1.32
 -13 -11   2    4.16    1.45
 -13  11   3   59.21    5.94
 -13 -11   3   69.38    5.72
 -13  11   4  128.09    9.91
 -13 -11   4  124.14    9.41
 -13  11   5  146.59    6.28
 -13 -11   5  156.37    5.53
  13  11  -6    6.07    1.15
 -13  11   6    6.94    1.69
  13  11  -7  197.75   13.52
 -13  11   7  195.72   15.17
  13  11  -8  293.23   18.89
  13  11  -8  273.14   18.32
 -13  11   8  243.53   19.64
  13  11  -9 1032.96   68.00
  13  11  -9 1106.34   68.54
 -13  11   9 1076.91   69.69
  13  11 -10  745.49   47.01
  13  11 -10  741.17   46.58
 -13  11  10  650.92   47.80
  13  11 -11 2222.88  139.55
  13  11 -11 2200.88  139.92
 -13  11  11 2176.49  140.92
  13  11 -12  431.36   28.04
  13  11 -12  430.63   27.72
 -13  11  12  390.29   28.74
 -13  11  13  735.81   44.71
  13  11 -13  652.60   43.39
  13  11 -13  645.02   43.67
  13 -11 -13  699.82   44.61
 -13  11  13  667.89   44.53
 -13  11  14    4.43    1.58
 -13  11  14    2.00    1.49
  13  11 -14    4.06    1.17
  13  11 -14    2.72    1.21
  13 -11 -14    5.23    1.68
 -13  11  15   54.82    5.17
  13  11 -15   49.55    4.28
  13  11 -15   50.65    4.50
  13 -11 -15   55.23    5.12
 -13  11  15   44.07    4.78
  13  11 -16   19.73    2.17
  13 -11 -16   12.88    2.34
 -13  11  16   19.23    2.69
 -13  11  17  126.29    9.28
  13  11 -17  114.24    8.44
  13 -11 -17  118.56    9.01
 -13  11  18    6.57    1.52
  13  11 -18    8.25    1.29
  13 -11 -18    8.15    1.63
  13  11 -19   17.44    1.57
  13 -11 -19    1.12    0.63
  13  11 -20   73.50    5.36
  13  11 -21  574.75   36.78
  13  13   1   53.32    3.87
  13  13   0   12.12    1.32
  13  13  -1  300.54   19.52
  13  13  -2    9.06    1.24
  13  13  -3 1439.73   91.02
  13  13  -4  276.69   18.14
  13  13  -5 1259.08   77.42
  13 -13  -5 1163.64   77.87
  13 -13  -6   59.01    5.02
  13 -13  -7  330.73   22.11
  13 -13  -8   36.57    3.53
  13 -13  -9  176.37   12.32
  13 -13 -12    2.86    0.95
 -14   0 -21    1.74    0.82
 -14   0 -20   -0.24    1.12
 -14   0 -19    0.30    1.62
 -14   0 -18  178.48   13.13
 -14   0 -17   -0.42    2.03
 -14   0 -17   -2.00    2.22
 -14   0 -16    9.97    2.39
 -14   0 -16   16.35    2.75
 -14   0 -15    0.52    1.83
 -14   0 -15    3.02    1.96
 -14   0 -14  151.07   12.83
 -14   0 -14  170.17   13.02
 -14   0 -13    4.44    4.50
 -14   0 -13    0.59    1.94
 -14   0 -13    0.58    1.79
 -14   0 -13    0.81    1.09
 -14   0 -12   20.47    3.66
 -14   0 -12   20.77    3.66
 -14   0 -12   26.74    3.85
 -14   0 -12   24.63    3.15
 -14   0 -12   20.15    2.66
 -14   0 -11    0.61    2.01
 -14   0 -11    3.44    2.12
 -14   0 -11    6.02    2.23
 -14   0 -11    2.20    1.20
 -14   0 -11    2.31    2.71
 -14   0 -10 1931.15  126.45
 -14   0 -10 1958.90  126.28
 -14   0 -10 2007.85  135.89
 -14   0 -10 1978.77  124.95
 -14   0  -9    6.98    2.77
 -14   0  -9   11.69    2.76
 -14   0  -9    7.58    1.82
 -14   0  -9   11.21    5.89
 -14   0  -8 1956.73  127.55
 -14   0  -8 1975.11  127.28
 -14   0  -8 2183.79  137.22
 -14   0  -8 2020.60  126.69
 -14   0  -8 1951.57  126.26
 -14   0  -7    5.35    2.68
 -14   0  -7    4.96    1.75
 -14   0  -7    9.46    1.87
 -14   0  -7    2.07    3.45
 -14   0  -6 1040.08   70.51
 -14   0  -6 1174.90   79.22
 -14   0  -6 1095.74   69.89
 -14   0  -6 1083.44   69.61
 -14   0  -5    3.39    1.66
 -14   0  -5    2.45    1.24
 -14   0  -5    2.52    1.15
 -14   0  -4  441.34   30.48
 -14   0  -4  493.07   37.60
 -14   0  -4  440.06   29.79
 -14   0  -4  447.04   29.66
 -14   0  -3    0.89    1.43
 -14   0  -3    1.57    1.11
 -14   0  -3    3.47    2.87
 -14   0  -3    0.30    0.92
 -14   0  -2   42.45    8.15
 -14   0  -2   23.43    3.05
 -14   0  -2   29.95    3.22
 -14   0  -2   35.96    3.95
 -14   0  -1    2.14    1.38
 -14   0  -1    5.04    3.40
 -14   0  -1    2.23    1.16
 -14   0   0 1831.71  119.59
 -14   0   0 2043.40  127.75
 -14   0   0 1859.44  119.45
  14   0   0 2012.28  127.48
 -14   0   0 1921.44  120.38
  14   0  -1    1.60    2.65
 -14   0   1   -0.28    0.90
 -14   0   1    2.85    1.64
 -14   0   2 1385.79   89.12
 -14   0   2 1387.48   89.59
 -14   0   2 1389.47   96.95
  14   0  -2 1537.85   97.16
  14   0  -3    1.61    3.27
 -14   0   3    4.43    1.39
 -14   0   3    4.58    1.65
 -14   0   4 6513.34  421.11
 -14   0   4 6828.50  421.79
 -14   0   4 6718.81  429.82
  14   0  -4 7375.51  429.76
 -14   0   5    5.13    1.46
 -14   0   5    5.17    1.94
 -14   0   5    7.18    4.21
 -14   0   6 2765.19  175.00
  14   0  -6 2555.32  175.66
 -14   0   7    9.25    3.15
 -14   0   8  632.61   46.51
 -14   0   9   -1.24    2.71
 -14   0  10    8.53    3.94
 -14   0  11    1.21    2.46
  14   0 -12  870.99   57.76
 -14   0  12  944.73   62.55
 -14   0  13    3.77    2.76
  14   0 -13    3.15    1.28
 -14   0  14  449.95   34.35
  14   0 -14  437.70   29.80
 -14   0  15    1.36    2.52
  14   0 -15    2.48    1.57
 -14   0  16 1431.52   96.56
  14   0 -16 1409.55   91.08
 -14   0  17    4.52    3.05
  14   0 -17    1.78    1.52
 -14   0  18 3860.99  258.04
  14   0 -18 4001.11  258.35
  14   0 -18 4008.69  252.08
  14   0 -19   -1.68    3.40
  14   0 -19   -0.96    2.09
 -14   0  19    4.99    3.37
  14   0 -20   22.89    5.93
  14   0 -20   21.26    3.31
 -14   0  20   10.41    4.21
  14   0 -21    3.66    4.00
  14   0 -21    1.01    1.57
 -14   0  21    1.80    2.58
 -14   0  22  330.00   31.43
  14   0 -22  351.04   31.88
  14   0 -22  388.59   26.13
  14   0 -23   -1.91    2.73
  14   0 -23   -0.51    1.80
 -14   0  23    1.87    2.68
 -14   0  24  148.20   17.44
  14   0 -24  151.24   17.83
  14   0 -24  155.49   12.28
  14   0 -25    0.49    1.57
 -14   0  25    1.85    3.07
  14   0 -26    1.41    1.66
  14   0 -27    0.45    1.81
  14   0 -28 1175.14   76.02
  14   0 -29    2.30    1.31
  14   0 -30  923.99   59.85
  14   0 -31    2.12    1.38
  14   0 -32  629.02   40.96
  14   0 -33   -0.22    0.75
 -14  -2 -20  105.61    7.89
 -14   2 -20  116.45    8.18
 -14  -2 -19    4.41    1.25
 -14   2 -19   11.45    1.91
 -14  -2 -18  437.36   29.53
 -14   2 -18  454.29   29.92
 -14  -2 -17   26.00    3.57
 -14   2 -17   53.21    4.81
 -14  -2 -16   77.25    6.44
 -14   2 -16   60.75    6.12
 -14  -2 -16   68.08    6.28
 -14   2 -16   65.63    6.56
 -14  -2 -15   44.16    5.06
 -14   2 -15   60.24    5.47
 -14  -2 -15   44.38    4.76
 -14  -2 -15   48.49    5.27
 -14   2 -15   58.97    5.94
 -14   2 -14  265.03   20.36
 -14  -2 -14  261.37   20.04
 -14  -2 -14  315.75   20.28
 -14   2 -14  255.27   19.70
 -14  -2 -14  284.37   18.77
 -14  -2 -14  270.57   19.92
 -14  -2 -13   36.81    4.81
 -14  -2 -13   41.10    5.24
 -14  -2 -13   43.00    5.09
 -14  -2 -13   40.01    4.24
 -14  -2 -12   35.89    9.17
 -14   2 -12   35.11    9.31
 -14  -2 -12   49.56    5.45
 -14   2 -12   35.04    5.17
 -14  -2 -12   50.96    5.79
 -14   2 -12   32.68    4.72
 -14  -2 -12   49.46    4.58
 -14  -2 -11   66.31    7.05
 -14   2 -11  107.10    8.59
 -14  -2 -11   64.03    7.08
 -14  -2 -11   83.80    7.51
 -14   2 -11   81.68    7.39
 -14  -2 -11   59.30    6.43
 -14  -2 -11   66.22    6.25
 -14  -2 -11   81.90   12.79
 -14   2 -11  119.68   14.82
 -14  -2 -10  208.96   16.18
 -14   2 -10  197.54   16.60
 -14  -2 -10  235.60   16.63
 -14   2 -10  169.47   15.66
 -14  -2 -10  256.74   24.53
 -14   2 -10  222.28   23.09
 -14  -2 -10  225.94   15.92
 -14  -2 -10  233.73   15.51
 -14  -2  -9   13.43    2.96
 -14   2  -9   13.73    3.33
 -14  -2  -9   24.00    3.54
 -14   2  -9   12.72    2.75
 -14  -2  -9   13.34    2.66
 -14   2  -9   13.72    2.13
 -14  -2  -9   20.40    2.75
 -14  -2  -9   16.91    6.12
 -14   2  -9    4.11    3.91
 -14  -2  -8   55.23    5.75
 -14   2  -8   53.32    6.17
 -14   2  -8   47.38    5.07
 -14  -2  -8   47.21    5.48
 -14   2  -8   43.61    5.22
 -14  -2  -8   55.06    5.38
 -14   2  -8   47.59    4.63
 -14  -2  -8   55.17    5.12
 -14  -2  -8   55.79   10.59
 -14   2  -8   64.30   10.72
 -14  -2  -7    3.50    2.03
 -14   2  -7    2.43    1.74
 -14  -2  -7    1.04    1.77
 -14   2  -7    2.78    1.59
 -14   2  -7    3.15    1.56
 -14  -2  -7    2.59    1.68
 -14   2  -7    1.22    1.02
 -14  -2  -7    1.15    1.28
 -14  -2  -7    3.97    3.67
 -14   2  -7    1.93    2.77
 -14  -2  -6   31.76    4.18
 -14   2  -6   38.06    4.79
 -14   2  -6   29.62    3.85
 -14   2  -6   32.81    3.76
 -14  -2  -6   28.52    3.78
 -14   2  -6   32.58    3.46
 -14  -2  -6   35.68    3.93
 -14  -2  -6   36.01    7.94
 -14   2  -6   24.15    6.47
 -14  -2  -5    5.96    1.93
 -14   2  -5    6.61    2.17
 -14   2  -5    5.69    1.75
 -14  -2  -5    6.07    1.75
 -14   2  -5    6.51    1.46
 -14  -2  -5    9.03    4.49
 -14   2  -5    5.33    3.90
 -14  -2  -5    5.34    1.65
 -14   2  -4  122.23   10.08
 -14  -2  -4  151.30   16.17
 -14   2  -4  121.42   15.08
 -14   2  -4  114.40    9.58
 -14  -2  -4  146.48   10.41
 -14  -2  -4  172.50   10.81
 -14  -2  -4  126.96   10.46
 -14   2  -4  121.38   10.68
 -14   2  -3  784.85   51.35
 -14  -2  -3  831.03   58.40
 -14   2  -3  853.10   58.74
 -14  -2  -3  831.68   51.55
 -14   2  -3  771.78   50.93
 -14  -2  -3  723.70   51.56
 -14   2  -3  816.00   52.29
 -14  -2  -2  626.06   38.72
 -14   2  -2  555.99   38.31
 -14  -2  -2  661.74   45.74
 -14   2  -2  573.10   44.61
 -14  -2  -2  647.61   38.66
 -14   2  -2  521.27   37.90
 -14  -2  -2  637.21   39.02
 -14   2  -2  536.49   39.03
 -14  -2  -1 1950.37  127.39
 -14   2  -1 2059.99  127.24
 -14  -2  -1 2039.93  134.16
 -14   2  -1 2263.95  135.60
 -14  -2  -1 1996.13  127.25
 -14   2  -1 1980.46  126.92
 -14  -2  -1 2031.83  127.47
  14  -2   1 2039.54  136.21
  14   2   1 1981.76  133.33
 -14  -2  -1 1848.76  127.53
 -14   2  -1 2105.99  128.26
 -14  -2   0 1176.97   71.66
 -14   2   0  879.67   69.68
 -14  -2   0 1060.29   64.05
  14  -2   0  850.63   70.63
  14   2   0 1063.68   70.29
 -14  -2   0 1010.45   64.26
 -14   2   0  889.31   64.35
 -14   2   1 1118.61   74.54
 -14  -2   1 1106.18   74.34
 -14  -2   1 1235.79   81.34
 -14   2   1 1332.08   82.79
 -14  -2   1 1190.37   74.47
  14  -2  -1 1176.44   82.43
  14   2  -1 1306.68   81.05
 -14  -2   1 1102.47   74.65
 -14   2   1 1197.71   75.22
  14  -2  -2   12.45    4.92
  14   2  -2    8.45    3.55
 -14   2   2    7.19    2.02
 -14  -2   2    7.49    1.83
 -14  -2   2    9.46    3.74
 -14   2   2   12.26    1.81
  14  -2  -3   66.45   10.04
  14   2  -3   58.00    8.39
 -14   2   3   46.43    4.78
 -14  -2   3   52.31    4.71
 -14   2   3   41.14    4.03
 -14  -2   3   62.71    9.58
 -14   2   3   46.27    9.08
 -14   2   4  248.16   17.88
 -14  -2   4  276.51   17.83
 -14  -2   4  282.42   24.17
 -14   2   4  242.24   24.42
 -14   2   4  235.06   17.10
  14  -2  -4  250.85   23.82
  14   2  -4  306.73   23.70
 -14   2   5  362.14   22.55
 -14   2   5  387.96   23.81
 -14  -2   5  333.65   23.24
 -14  -2   5  325.23   29.29
 -14   2   5  320.36   29.98
 -14   2   5  307.97   22.65
  14  -2  -5  354.01   29.76
  14   2  -5  328.44   28.17
 -14   2   6  201.71   13.17
 -14  -2   6  198.63   14.00
 -14   2   6  202.96   14.33
 -14   2   6  185.77   20.12
 -14  -2   6  195.46   19.71
 -14   2   6  178.42   13.40
  14   2  -6  187.65   14.49
 -14   2   7  542.26   34.49
 -14   2   7  506.76   40.83
 -14  -2   7  502.62   39.73
 -14  -2   8  359.83   28.04
 -14   2   8  327.70   28.46
 -14  -2   9 1719.13  113.17
 -14   2   9 1680.47  114.11
 -14  -2  10 2713.25  167.16
 -14   2  10 2395.33  167.41
 -14  -2  11 2718.16  174.98
 -14   2  11 2812.31  176.30
  14  -2 -11 2805.80  170.59
  14   2 -11 2539.71  170.39
  14  -2 -12 1127.28   72.14
  14   2 -12 1083.97   72.10
 -14  -2  12 1227.89   77.02
 -14   2  12 1094.14   77.38
  14  -2 -13  508.03   32.36
  14   2 -13  435.38   32.13
 -14  -2  13  539.95   37.07
 -14   2  13  517.72   37.89
  14  -2 -14  249.57   17.42
  14   2 -14  227.06   17.29
 -14  -2  14  268.08   22.01
 -14   2  14  274.77   23.05
 -14  -2  15   15.61    4.80
 -14   2  15   29.18    6.40
  14  -2 -15   24.21    3.20
  14   2 -15   25.41    3.36
 -14  -2  16  165.09   15.88
 -14   2  16  122.67   15.15
  14  -2 -16  143.00   11.14
  14   2 -16  146.43   11.30
 -14  -2  17  255.15   22.06
 -14   2  17  219.17   22.37
  14  -2 -17  229.18   17.13
  14   2 -17  250.98   17.47
 -14  -2  18    7.52    3.57
 -14   2  18    7.17    3.97
  14   2 -18   14.37    5.15
  14  -2 -18    4.52    2.85
  14  -2 -18   13.76    2.51
  14   2 -18   11.01    2.36
 -14  -2  19   66.28    9.82
 -14   2  19   48.75    9.48
  14   2 -19   64.71    5.45
  14  -2 -19   55.16    5.67
  14   2 -19   56.11    5.84
  14   2 -19   55.40    9.38
  14  -2 -19   44.11    8.40
  14   2 -20  170.20   12.61
 -14  -2  20  169.55   18.09
 -14   2  20  144.73   18.39
  14  -2 -20  167.57   18.06
  14  -2 -20  189.43   13.40
  14   2 -20  166.01   13.26
  14   2 -20  174.93   18.66
  14   2 -21  599.05   38.91
  14  -2 -21  581.63   45.60
 -14  -2  21  594.20   45.77
 -14   2  21  567.91   46.81
  14   2 -21  462.41   44.42
  14  -2 -21  640.70   39.75
  14   2 -21  574.57   39.60
  14   2 -22 1696.10  107.73
 -14  -2  22 1695.35  115.30
 -14   2  22 1525.98  115.88
  14   2 -22 1600.25  115.34
  14  -2 -22 1636.83  115.00
  14  -2 -22 1741.48  108.47
  14   2 -22 1698.24  108.58
  14   2 -23  485.78   32.52
 -14  -2  23  480.57   39.51
  14   2 -23  420.37   39.00
  14  -2 -23  488.29   39.55
  14  -2 -23  529.21   33.34
 -14   2  23  489.51   41.08
  14   2 -23  471.74   33.25
  14   2 -24 1078.66   69.93
  14   2 -24 1015.56   77.42
  14  -2 -24 1067.96   77.19
  14  -2 -24 1115.65   70.61
  14   2 -24 1113.33   70.76
 -14  -2  24 1033.85   77.10
 -14   2  24 1032.12   78.49
  14   2 -25  377.44   26.75
  14  -2 -25  424.64   27.60
  14   2 -25  404.80   27.60
  14   2 -26  218.47   16.36
  14   2 -26  239.89   17.17
  14  -2 -26  256.55   17.20
  14  -2 -27    3.19    1.53
  14   2 -27    3.77    1.74
  14  -2 -28    1.48    1.47
  14   2 -28    1.54    1.53
  14  -2 -29  116.66    8.72
  14   2 -29  102.26    8.54
  14  -2 -30   86.19    7.20
  14   2 -30   94.92    7.34
  14  -2 -31   11.98    2.03
  14   2 -31   10.87    2.00
  14  -2 -32   97.89    7.32
  14   2 -32   94.13    7.23
 -14  -4 -18   13.88    1.58
 -14   4 -18    4.56    1.23
 -14  -4 -17  336.69   20.84
 -14  -4 -17  281.23   20.60
 -14   4 -17  320.77   21.20
 -14  -4 -16    2.00    1.31
 -14   4 -16    6.51    2.04
 -14  -4 -15  243.97   16.14
 -14  -4 -15  226.34   16.68
 -14   4 -15  243.87   17.42
 -14  -4 -14    1.14    1.51
 -14   4 -14    0.51    2.02
 -14  -4 -14    2.10    1.42
 -14   4 -14    0.35    1.42
 -14  -4 -14    3.19    1.21
 -14  -4 -13   72.55    6.39
 -14  -4 -13   65.53    5.67
 -14   4 -13   48.94    5.20
 -14  -4 -13   60.15    5.65
 -14  -4 -13   53.97    5.12
 -14  -4 -13   48.41    5.50
 -14   4 -13   69.09    6.54
 -14  -4 -12   89.19    7.65
 -14  -4 -12   80.44    6.94
 -14   4 -12   71.58    6.71
 -14  -4 -12   76.99    6.85
 -14  -4 -12   70.30    6.37
 -14  -4 -12   70.03    6.88
 -14   4 -12   83.24    7.90
 -14  -4 -11  671.98   44.67
 -14   4 -11  722.39   44.63
 -14  -4 -11  691.38   44.20
 -14   4 -11  658.12   43.98
 -14  -4 -11  645.74   44.06
 -14  -4 -11  594.44   49.79
 -14   4 -11  539.34   48.83
 -14  -4 -11  662.62   43.76
 -14  -4 -11  636.78   44.17
 -14   4 -11  729.72   45.45
 -14  -4 -10   27.18    3.78
 -14   4 -10   15.91    3.63
 -14  -4 -10   29.41    4.07
 -14   4 -10   23.71    3.59
 -14  -4 -10   32.17    3.93
 -14   4 -10   21.61    3.28
 -14  -4 -10   18.71    3.18
 -14  -4 -10   33.67    3.70
 -14  -4 -10   33.21    7.10
 -14   4 -10   20.03    5.39
 -14  -4  -9  478.80   30.85
 -14   4  -9  472.03   30.64
 -14  -4  -9  444.13   30.20
 -14   4  -9  456.63   30.13
 -14  -4  -9  426.99   36.18
 -14   4  -9  362.16   34.84
 -14  -4  -9  449.20   30.19
 -14  -4  -9  396.07   29.79
 -14  -4  -9  413.78   30.20
 -14   4  -9  491.69   31.49
 -14  -4  -8   20.56    3.10
 -14   4  -8   11.34    2.90
 -14  -4  -8   14.62    3.22
 -14   4  -8    8.57    2.51
 -14  -4  -8    8.68    2.45
 -14  -4  -8   16.62    2.81
 -14  -4  -8   17.55    5.29
 -14   4  -8    3.33    3.72
 -14   4  -7 1434.05   88.74
 -14  -4  -7 1349.06   95.15
 -14   4  -7 1314.09   94.41
 -14  -4  -7 1347.28   88.48
 -14  -4  -7 1391.72   88.50
 -14  -4  -7 1262.05   88.45
 -14   4  -7 1486.97   89.61
 -14  -4  -6    2.83    1.88
 -14   4  -6    1.77    2.02
 -14  -4  -6    1.80    1.59
 -14  -4  -6    2.75    1.74
 -14  -4  -6    1.68    3.11
 -14   4  -6    1.59    2.95
 -14   4  -6    2.73    1.60
 -14  -4  -5   23.83    3.26
 -14   4  -5   25.41    3.88
 -14   4  -5   24.03    3.05
 -14  -4  -5   16.77    2.91
 -14  -4  -5   14.55    4.98
 -14   4  -5   12.34    4.02
 -14   4  -5   18.85    3.02
 -14  -4  -4   11.96    2.44
  14  -4   4    2.27    3.32
  14   4   4    9.34    4.32
 -14   4  -4   10.78    2.86
 -14   4  -4   10.02    2.07
 -14   4  -4   11.03    2.11
 -14  -4  -4   15.36    2.51
 -14  -4  -4    6.21    3.46
 -14   4  -4   13.39    4.31
  14  -4   3    6.44    4.36
 -14  -4  -3    1.28    1.26
 -14   4  -3   12.34    2.70
 -14  -4  -3    4.20    1.65
 -14   4  -3    3.47    1.35
 -14  -4  -3    9.86    2.06
 -14  -4  -3    4.46    2.76
 -14   4  -3    1.44    2.08
 -14  -4  -3    6.45    1.96
 -14  -4  -2   75.41    6.59
  14   4   2   87.28   10.77
 -14   4  -2   69.61    6.10
 -14  -4  -2   74.96    6.58
 -14  -4  -2   73.09   10.18
 -14   4  -2   68.85    9.88
 -14  -4  -2   82.69    7.01
 -14  -4  -2   85.21    6.89
 -14   4  -2   63.62    6.72
 -14  -4  -1  221.07   16.67
 -14   4  -1  239.38   16.29
 -14  -4  -1  262.16   21.87
 -14   4  -1  227.69   21.07
 -14  -4  -1  244.82   16.74
 -14  -4  -1  225.79   16.98
  14  -4   1  239.02   23.66
  14   4   1  247.07   21.56
 -14  -4  -1  225.86   16.74
 -14   4  -1  234.62   17.22
  14  -4   0    3.63    3.43
  14   4   0   16.12    4.36
 -14  -4   0   11.17    2.25
 -14   4   0    8.09    2.25
 -14  -4   0   13.96    2.29
 -14   4   0   10.12    1.72
 -14  -4   0   10.92    3.64
 -14   4   0    9.67    3.50
 -14  -4   0   15.77    2.32
 -14  -4   0   12.66    2.39
  14  -4  -1   -1.73    2.88
  14   4  -1    2.63    2.45
 -14  -4   1    7.09    1.71
 -14   4   1    0.86    1.45
 -14  -4   1    5.83    1.62
 -14   4   1    9.22    1.50
 -14   4   1    3.61    1.43
 -14  -4   1    1.36    1.96
 -14   4   1    5.60    3.08
 -14  -4   1    9.15    1.71
 -14  -4   1    7.62    1.97
  14  -4  -2   82.80   11.10
 -14  -4   2   64.68    5.68
 -14   4   2   63.38    5.67
 -14  -4   2   54.55    8.47
 -14   4   2   64.88    9.25
 -14  -4   2   64.37    5.91
  14   4  -2   77.92    9.64
 -14  -4   2   54.43    5.55
 -14   4   2   52.09    5.68
 -14   4   3  973.62   63.91
 -14  -4   3 1061.34   63.86
 -14  -4   3 1096.27   70.19
 -14   4   3 1069.81   70.85
 -14   4   3  919.13   64.06
  14   4  -3 1004.23   66.82
 -14  -4   3 1027.67   64.39
  14  -4  -3 1051.42   70.90
  14   4  -3 1124.73   69.87
 -14  -4   3  940.07   63.99
 -14   4   3  933.89   64.21
 -14   4   4   45.79    4.65
 -14  -4   4   62.17    4.79
 -14   4   4   40.55    4.63
 -14  -4   4   74.22    9.64
 -14   4   4   41.47    8.38
  14   4  -4   56.68    6.59
 -14  -4   4   63.21    5.27
 -14   4   4   32.89    4.47
  14   4  -4   71.86    8.94
 -14   4   5  990.57   65.15
 -14  -4   5 1051.73   64.93
 -14  -4   5 1198.11   72.61
 -14   4   5 1113.96   73.12
 -14   4   5  915.29   65.24
  14   4  -5 1024.87   67.44
 -14  -4   5 1004.28   65.20
 -14   4   6   10.24    1.69
 -14   4   6    5.45    1.68
 -14  -4   6    4.47    1.23
 -14  -4   6    6.04    3.32
 -14   4   6    5.56    1.61
 -14   4   6    8.93    3.92
  14   4  -6    3.67    1.75
 -14  -4   6    3.64    1.46
 -14   4   7  846.55   56.98
 -14  -4   7  940.81   56.72
 -14  -4   7  968.58   63.81
 -14   4   7  745.44   63.47
  14   4  -7  801.31   58.35
 -14   4   7  878.76   56.42
 -14   4   8    2.72    1.13
 -14  -4   8    2.53    1.14
 -14   4   8    2.00    1.41
 -14   4   8    1.93    3.19
 -14  -4   8    3.12    3.16
  14  -4  -8    0.33    1.15
  14   4  -8   -0.32    1.26
 -14  -4   9  309.97   24.53
 -14   4   9  290.71   25.61
  14  -4  -9  290.35   19.99
  14   4  -9  286.88   19.97
 -14  -4  10   16.78    4.49
 -14   4  10   10.82    4.30
  14  -4 -10   12.27    2.03
  14   4 -10    9.45    1.88
 -14  -4  11  156.64   14.81
 -14   4  11  139.90   15.67
  14  -4 -11  137.76   10.61
  14   4 -11  146.33   10.77
 -14  -4  12   50.62    7.44
 -14   4  12   50.27    8.35
  14  -4 -12   37.14    3.93
  14   4 -12   34.73    3.88
 -14  -4  13    2.46    2.04
 -14   4  13    4.80    3.25
  14   4 -13    4.31    1.29
  14  -4 -13    1.66    1.01
  14   4 -13    7.37    1.60
  14   4 -14   76.08    5.84
  14  -4 -14   50.08    5.34
  14   4 -14   66.37    5.86
 -14  -4  14   68.12    9.11
 -14   4  14   60.78    9.92
  14   4 -15 1692.98  109.87
  14  -4 -15 1682.02  110.01
  14   4 -15 1770.78  110.27
 -14  -4  15 1840.59  115.78
 -14   4  15 1768.05  117.61
  14   4 -16   18.08    2.50
 -14  -4  16   15.00    4.44
 -14   4  16    8.87    4.22
  14   4 -16    8.09    3.61
  14  -4 -16   12.52    4.09
  14  -4 -16    7.17    2.06
  14   4 -16   20.72    2.84
  14   4 -17 3975.52  244.14
  14  -4 -17 3606.08  242.85
  14  -4 -17 3683.11  237.88
  14   4 -17 3728.64  238.11
 -14  -4  17 4200.35  244.71
 -14   4  17 3781.43  246.07
 -14  -4  18   68.66    9.39
 -14   4  18   30.91    7.27
  14   4 -18   56.47    4.83
  14   4 -18   53.14    8.54
  14  -4 -18   13.56    5.20
  14  -4 -18   25.05    3.57
  14   4 -19 1307.86   89.68
  14  -4 -19 1221.18   88.52
  14  -4 -19 1260.91   83.43
  14   4 -19 1322.28   83.75
  14   4 -19 1298.80   83.65
 -14  -4  19 1442.50   90.61
 -14   4  19 1293.25   91.95
 -14   4  20   -2.07    3.82
  14   4 -20    6.40    1.90
  14   4 -20    1.56    2.23
  14  -4 -20   -1.44    2.06
 -14  -4  20    1.61    3.27
  14  -4 -20    1.95    1.44
  14   4 -20    0.85    1.42
  14   4 -21  169.56   12.66
  14  -4 -21  164.38   12.39
  14   4 -21  153.44   17.04
  14  -4 -21  142.89   16.26
  14   4 -21  172.83   12.70
 -14  -4  21  199.02   19.00
 -14   4  21  136.96   18.38
 -14  -4  22    5.05    3.96
 -14   4  22   -2.12    6.80
  14   4 -22   12.53    2.36
  14   4 -22    3.17    3.24
  14  -4 -22   11.73    4.04
  14  -4 -22   10.75    2.03
  14   4 -22   13.75    2.38
  14   4 -23  169.63   12.79
  14  -4 -23  162.96   12.45
  14   4 -23  172.76   12.72
  14   4 -24   40.71    4.54
  14  -4 -24   37.58    4.19
  14   4 -24   44.94    4.48
  14   4 -25   91.03    7.97
  14  -4 -25   95.08    7.79
  14   4 -25  105.07    8.09
  14   4 -26    5.57    1.75
  14  -4 -26    6.81    1.69
  14   4 -26    5.46    1.54
  14   4 -27  382.88   26.67
  14  -4 -27  391.59   26.50
  14   4 -27  416.60   26.65
  14   4 -28    7.12    1.60
  14  -4 -28    6.67    1.58
  14   4 -28    4.62    1.52
  14  -4 -29 1382.86   90.04
  14   4 -29 1420.95   90.09
  14   4 -29 1319.94   89.96
  14  -4 -29 1440.48   90.02
  14   4 -29 1520.87   90.09
  14  -4 -30    1.84    0.92
  14   4 -30    3.17    1.02
 -14  -6 -16   83.14    6.33
  14   6  16   84.96    6.42
 -14  -6 -15   29.08    2.43
  14   6  15   38.05    2.78
 -14  -6 -14  242.40   17.46
 -14  -6 -14  261.89   17.24
  14   6  14  261.21   17.58
 -14  -6 -13   69.53    5.88
 -14  -6 -13   66.76    5.62
 -14  -6 -12   42.84    3.76
 -14  -6 -12   38.29    3.73
 -14  -6 -12   43.56    3.64
 -14  -6 -11  132.20   10.62
 -14   6 -11  161.54   11.63
 -14  -6 -11  139.97   10.63
 -14  -6 -11  139.31   10.46
 -14   6 -11  126.31   10.40
 -14   6 -10    5.25    1.76
 -14   6 -10    4.87    2.06
 -14  -6 -10    1.27    1.18
 -14  -6 -10    2.33    1.41
 -14  -6 -10    4.19    1.49
 -14   6  -9   33.86    4.30
 -14  -6  -9   52.08    5.13
 -14   6  -9   45.77    5.24
 -14  -6  -9   42.78    4.66
 -14  -6  -9   50.61    4.88
 -14  -6  -8   86.13    7.60
 -14   6  -8   99.92    8.38
 -14  -6  -8   88.94    7.53
 -14  -6  -8   99.73    7.80
 -14   6  -7  197.13   13.83
 -14  -6  -7  157.88   12.73
 -14  -6  -7  160.66   12.92
 -14   6  -7  171.97   12.81
 -14   6  -6    9.28    2.18
 -14   6  -6   12.23    2.73
 -14  -6  -6    6.86    2.05
 -14   6  -5   85.82    7.62
 -14  -6  -5   76.84    7.11
 -14   6  -4  182.02   12.69
 -14  -6  -4  143.97   11.77
 -14  -6  -4  148.69   12.19
 -14  -6  -3 1454.32   94.10
  14   6   3 1558.92   99.90
 -14  -6  -3 1452.29   94.03
 -14   6  -3 1451.10   94.43
 -14  -6  -3 1472.98   94.55
 -14  -6  -2  218.88   16.15
  14   6   2  211.31   20.24
 -14  -6  -2  219.31   16.03
 -14  -6  -2  238.02   16.75
 -14  -6  -1  833.51   55.71
  14   6   1  916.10   61.05
 -14  -6  -1  876.33   55.64
 -14  -6  -1  851.19   56.21
  14   6   1  841.85   54.96
 -14  -6   0  119.48    9.23
 -14   6   0  126.66    9.49
  14   6   0  123.16   12.78
 -14  -6   0  109.58    8.82
 -14  -6   0  103.89    9.34
  14   6   0  108.12    8.33
 -14  -6   1  364.88   25.67
 -14   6   1  380.17   26.43
  14   6  -1  350.19   29.33
 -14  -6   1  400.82   26.27
 -14  -6   2   89.02    7.13
 -14   6   2   63.95    7.20
  14   6  -2   95.75   10.47
 -14  -6   2   88.00    7.46
 -14   6   3   31.68    4.14
  14   6  -3   26.28    5.10
 -14  -6   3   34.37    3.99
 -14   6   4  215.48   16.36
  14   6  -4  214.18   18.70
 -14  -6   4  227.82   15.94
 -14   6   4  210.67   15.91
 -14   6   5  271.94   20.83
  14   6  -5  305.39   23.61
 -14  -6   5  305.94   20.36
 -14   6   5  280.09   20.39
 -14   6   6  123.69   10.50
  14   6  -6  109.82   11.99
 -14  -6   6  122.94    9.66
 -14   6   6  129.52    9.95
 -14   6   7  290.77   22.03
  14   6  -7  316.66   24.39
 -14  -6   7  310.53   21.11
 -14   6   7  307.10   21.38
 -14   6   8   94.61    8.79
 -14   6   8   98.42    8.06
 -14   6   9  376.45   25.70
 -14   6  10 1246.09   80.26
 -14   6  11 1855.44  118.43
 -14   6  12  813.75   53.06
  14   6 -13  296.65   20.81
 -14   6  13  300.58   20.73
  14   6 -14  368.45   25.26
  14  -6 -15   28.66    6.45
  14   6 -15   30.29    3.69
  14   6 -16  126.61   10.09
  14   6 -17  313.12   21.94
  14   6 -18   21.77    3.18
  14   6 -18   20.28    3.11
  14  -6 -18   20.25    3.52
  14   6 -19  319.62   22.16
  14   6 -19  310.91   22.02
  14   6 -19  313.80   21.29
  14   6 -20  186.49   13.30
  14   6 -20  189.72   14.13
  14   6 -21  628.03   41.25
  14   6 -21  612.81   40.28
  14   6 -22  792.50   52.66
  14   6 -22  808.90   51.78
  14   6 -23  394.67   27.35
  14   6 -23  406.86   27.49
  14   6 -24  760.41   49.36
  14   6 -24  744.91   49.29
  14   6 -25  404.71   26.44
  14   6 -25  374.78   26.16
  14   6 -26  137.73   10.38
  14   6 -27   22.90    2.77
  14   6 -28    2.20    1.17
  14   6 -29   87.63    6.52
 -14  -8 -15    2.54    0.74
 -14  -8 -14   13.70    1.59
 -14  -8 -14   10.60    1.33
 -14  -8 -13   22.45    2.29
 -14  -8 -13   18.46    2.07
 -14  -8 -12    3.59    1.09
 -14  -8 -12    3.60    1.08
  14   8  12    1.28    0.84
 -14  -8 -11    0.76    0.96
 -14  -8 -11    0.25    1.00
  14   8  11    0.71    0.83
 -14   8 -10   74.65    6.42
 -14  -8 -10   57.52    5.23
 -14  -8 -10   51.41    5.12
  14   8  10   69.64    5.34
 -14  -8  -9   12.70    2.14
 -14  -8  -9    9.79    2.12
  14   8   9   14.29    2.10
 -14   8  -8  428.16   26.31
 -14  -8  -8  349.15   24.76
  14   8   8  358.42   24.58
 -14   8  -7    6.43    2.39
 -14  -8  -7    9.46    2.13
  14   8   7   12.69    1.94
 -14   8  -6  593.54   36.47
 -14  -8  -6  510.33   35.01
 -14  -8  -6  494.06   35.29
  14   8   6  541.06   34.81
 -14  -8  -5    7.47    1.85
 -14  -8  -5   12.50    2.55
  14   8   5    8.18    1.64
 -14  -8  -4  303.97   22.30
 -14  -8  -4  322.79   22.89
  14   8   4  350.19   22.17
 -14   8  -3    3.23    1.89
  14   8   3    1.44    2.07
 -14  -8  -3    1.06    1.06
 -14  -8  -3    1.37    1.42
  14   8   3    3.38    1.17
 -14  -8  -2  282.15   20.12
 -14   8  -2  272.28   20.91
  14   8   2  274.42   25.01
 -14  -8  -2  279.91   20.06
 -14  -8  -2  313.79   20.90
  14   8   2  310.09   19.82
 -14  -8  -1    0.72    1.24
 -14   8  -1    3.12    1.73
  14   8   1    2.82    2.61
 -14  -8  -1    2.99    1.24
 -14  -8  -1    1.86    1.59
 -14  -8   0   39.07    4.02
 -14   8   0   35.46    4.46
 -14  -8   0   32.71    4.12
 -14  -8   1    1.84    1.30
 -14   8   1    3.45    1.79
 -14  -8   1    3.17    1.60
 -14  -8   2  389.70   25.87
 -14   8   2  368.49   26.37
  14   8  -2  381.37   30.66
 -14  -8   2  377.73   26.21
 -14  -8   3  110.40    8.35
 -14   8   3   88.08    8.87
  14   8  -3  116.48   12.45
 -14  -8   3  120.51    8.83
 -14   8   3   79.74    8.24
 -14   8   4 3156.84  204.10
 -14  -8   4 3299.83  203.16
  14   8  -4 3491.18  208.53
 -14   8   4 3045.88  203.44
 -14  -8   4 3168.34  203.26
 -14   8   4 3264.35  204.48
 -14   8   5    3.88    2.01
 -14   8   5   10.45    2.96
 -14   8   5    7.83    2.09
 -14  -8   5    8.58    2.15
 -14   8   6 1868.91  119.28
 -14   8   6 1820.59  117.99
 -14  -8   6 1820.79  117.68
 -14   8   6 1895.09  118.81
 -14   8   7   72.25    7.31
 -14   8   7   59.63    5.93
 -14  -8   7   64.50    5.82
 -14   8   7   67.18    6.72
 -14   8   8    4.78    1.97
 -14   8   8    1.98    2.26
 -14   8   8    1.96    1.35
 -14   8   9   21.06    3.28
 -14   8   9   13.30    3.44
 -14   8   9   13.58    2.39
 -14   8  10  628.34   40.90
 -14   8  10  566.89   38.90
 -14   8  10  596.09   39.85
 -14   8  11    0.51    1.42
 -14   8  11    0.68    1.77
 -14   8  12  370.22   27.12
  14   8 -12  376.12   25.70
 -14   8  12  377.37   26.26
 -14   8  13    3.48    1.71
  14   8 -13    3.21    1.53
  14   8 -14  466.57   30.92
 -14   8  14  445.54   31.18
  14   8 -15   42.10    4.58
 -14   8  15   41.65    4.72
  14   8 -16 1341.39   80.02
 -14   8  16 1145.51   79.79
  14   8 -17   15.93    2.84
  14  -8 -17   25.66    3.88
  14   8 -18 1656.51  110.43
  14  -8 -18 1827.49  111.36
  14  -8 -19    3.86    2.09
  14   8 -20    2.61    1.46
  14  -8 -20    3.33    1.76
  14   8 -21    3.55    1.49
  14   8 -22  474.14   31.58
  14   8 -23   34.95    3.75
  14   8 -23   35.66    3.79
  14   8 -24  382.95   25.60
  14   8 -24  384.31   25.52
  14   8 -25   -0.25    0.93
  14   8 -25    1.66    0.91
  14   8 -26    0.62    0.73
  14   8 -27    2.79    0.84
 -14 -10 -11    4.29    0.76
 -14 -10 -11    6.06    0.91
 -14 -10 -10    3.83    0.77
 -14 -10 -10    2.93    0.85
 -14 -10  -9   26.72    2.45
 -14 -10  -8   87.01    6.39
 -14 -10  -7    3.59    0.99
 -14 -10  -7    2.24    1.06
 -14 -10  -6    7.95    1.44
 -14 -10  -6    9.10    1.73
 -14  10  -5  233.71   17.36
 -14 -10  -5  233.56   16.19
 -14 -10  -5  254.73   16.79
 -14  10  -4  250.65   19.77
 -14 -10  -4  290.17   18.80
 -14 -10  -4  287.46   19.34
 -14  10  -3  341.87   23.24
 -14 -10  -3  325.17   21.82
 -14 -10  -3  324.97   22.46
 -14  10  -2   93.10    8.78
 -14 -10  -2  117.57    8.69
 -14  10  -1  447.41   29.39
 -14 -10  -1  408.77   28.58
 -14  10   0  252.89   19.70
 -14 -10   0  298.04   19.51
 -14  10   1   45.76    5.38
 -14 -10   1   63.02    5.43
 -14  10   2  183.70   13.78
 -14 -10   2  178.08   13.26
 -14 -10   3    3.58    1.13
 -14  10   3    6.34    1.93
 -14 -10   3    4.30    1.50
 -14 -10   4  106.23    8.03
 -14  10   4  111.57    8.84
 -14 -10   4   96.13    8.19
 -14 -10   5   22.22    2.72
 -14  10   5   24.22    3.32
 -14 -10   5   19.93    2.77
 -14  10   6  209.25   17.47
 -14 -10   6  248.59   16.41
 -14  10   6  268.78   18.07
 -14  10   6  227.02   16.82
 -14 -10   6  226.73   16.30
 -14  10   7    2.90    1.87
 -14 -10   7    3.02    1.19
 -14  10   7    3.11    1.34
 -14  10   7    4.41    1.72
 -14  10   8    9.19    2.49
 -14  10   8   15.10    2.40
 -14  10   8   11.59    2.73
 -14  10   9  323.37   21.71
 -14  10   9  270.14   21.23
 -14  10  10  613.73   37.32
  14  10 -10  528.65   35.75
 -14  10  10  501.42   36.69
 -14  10  11  457.18   28.91
  14  10 -11  415.26   27.25
  14  10 -11  377.55   27.28
 -14  10  11  402.42   28.42
 -14  10  12  334.25   22.09
  14  10 -12  312.19   20.52
  14  10 -12  299.84   20.63
 -14  10  12  258.43   21.21
  14  10 -13   68.29    5.65
  14  10 -13   58.34    5.62
 -14  10  13   58.97    6.35
 -14  10  14  203.29   13.95
  14  10 -14  172.45   12.31
  14  10 -14  165.61   12.39
 -14  10  14  153.14   12.95
 -14  10  15   81.62    7.53
  14  10 -15   78.99    6.45
  14  10 -15   88.55    6.72
  14 -10 -15   74.00    7.19
 -14  10  15   69.46    6.92
 -14  10  16  580.28   38.55
  14  10 -16  581.57   37.43
  14  10 -16  553.37   37.44
  14 -10 -16  573.62   38.20
 -14  10  17  686.30   43.69
  14  10 -17  656.44   42.53
  14  10 -17  616.22   42.50
  14 -10 -17  680.15   43.28
 -14  10  18  119.08    9.57
  14  10 -18  120.99    8.77
  14 -10 -18  110.25    9.12
  14  10 -19  150.05   10.65
  14 -10 -19  146.91   10.90
  14  10 -20    2.25    1.12
  14 -10 -20    0.22    0.26
  14  10 -21    5.46    1.22
  14  10 -22  469.35   30.50
  14  10 -22  472.07   30.47
  14  10 -23  154.77   10.50
 -14 -12  -5   15.18    1.53
 -14 -12  -4    1.61    0.60
 -14 -12  -3  243.76   16.12
 -14 -12  -2   55.01    4.33
 -14 -12  -1  773.52   49.46
 -14 -12   0    2.68    0.89
 -14 -12   1  124.47    8.77
 -14 -12   2   36.52    3.20
 -14 -12   3  269.73   17.81
  14  12  -5  479.09   31.23
  14  12  -6    2.58    1.02
  14  12  -7   77.96    6.04
  14  12  -8    9.67    1.61
  14  12  -9  803.39   51.56
  14  12 -10    4.78    1.19
  14  12 -11  637.75   41.68
  14 -12 -11  661.41   42.38
  14  12 -12   64.37    5.24
  14 -12 -12   73.66    5.94
  14  12 -13  106.76    7.84
  14 -12 -13  113.33    8.41
  14 -12 -14    7.34    1.54
  14 -12 -15  382.94   25.21
  14 -12 -16    7.78    1.30
 -15  -1 -20   72.29    5.39
 -15  -1 -19   94.06    7.11
 -15  -1 -18   17.56    2.38
 -15  -1 -17   14.34    2.41
 -15  -1 -16   84.87    7.03
 -15  -1 -16   74.35    6.86
 -15  -1 -15   48.35    5.10
 -15  -1 -15   51.02    5.33
 -15  -1 -14  237.08   17.19
 -15  -1 -14  250.05   18.62
 -15  -1 -13    4.20    2.45
 -15  -1 -13    7.75    2.37
 -15  -1 -13    7.31    2.24
 -15  -1 -13    7.13    1.55
 -15  -1 -12  153.54   12.91
 -15  -1 -12  187.11   13.27
 -15  -1 -12  155.32   18.83
 -15   1 -12  157.86   18.87
 -15  -1 -12  166.15   11.75
 -15  -1 -12  138.18   12.58
 -15  -1 -11   22.00    3.73
 -15  -1 -11   19.28    3.66
 -15  -1 -11   32.51    4.39
 -15   1 -11   21.92    2.82
 -15  -1 -11   25.11    3.04
 -15  -1 -11   21.97    6.96
 -15   1 -11   28.58    7.42
 -15  -1 -10  158.80   13.28
 -15  -1 -10  186.74   20.49
 -15   1 -10  191.12   20.65
 -15  -1 -10  160.89   12.64
 -15   1 -10  161.51   12.08
 -15  -1 -10  185.90   12.50
 -15  -1 -10  153.56   13.21
 -15  -1  -9  449.24   31.01
 -15  -1  -9  488.58   31.27
 -15  -1  -9  419.86   38.26
 -15  -1  -9  445.89   30.35
 -15   1  -9  417.31   29.64
 -15  -1  -9  455.93   29.97
 -15  -1  -8   26.99    3.96
 -15  -1  -8   22.99    3.61
 -15   1  -8   22.52    3.54
 -15  -1  -8   21.71    3.27
 -15  -1  -8   28.18    3.32
 -15   1  -8   22.01    2.94
 -15  -1  -8   19.53    6.64
 -15  -1  -7    1.60    1.77
 -15  -1  -7    3.17    1.76
 -15   1  -7    5.00    1.95
 -15  -1  -7    3.84    1.63
 -15   1  -7    5.68    1.48
 -15  -1  -7    1.87    1.25
 -15  -1  -7    2.11    3.90
 -15  -1  -6  326.47   22.49
 -15   1  -6  276.85   21.91
 -15  -1  -6  396.56   31.10
 -15  -1  -6  330.82   22.01
 -15   1  -6  289.70   21.32
 -15  -1  -6  314.95   21.68
 -15  -1  -6  348.00   22.71
 -15  -1  -5   27.61    3.99
 -15   1  -5   37.19    4.11
 -15  -1  -5   30.09    3.76
 -15   1  -5   31.01    3.51
 -15  -1  -5   38.97    3.93
 -15  -1  -5   27.18    6.74
 -15   1  -4   26.68    3.71
 -15  -1  -4   28.43    3.64
 -15  -1  -4   29.80    7.16
 -15   1  -4   34.84    3.57
 -15  -1  -4   32.56    3.68
 -15  -1  -4   35.19    4.23
 -15  -1  -3   23.01    3.36
 -15   1  -3   18.11    2.88
 -15  -1  -3   23.38    3.01
 -15  -1  -3   18.02    5.92
 -15  -1  -3   25.91    3.08
 -15   1  -3   18.42    2.61
 -15  -1  -2   36.90    4.13
 -15  -1  -2   37.01    7.72
 -15   1  -2   47.16    4.17
 -15  -1  -2   38.63    4.58
 -15  -1  -1   11.97    2.50
  15  -1   1    9.49    4.50
 -15  -1  -1   10.37    4.58
 -15  -1  -1   13.27    2.14
 -15  -1   0   55.08    5.37
  15  -1   0   56.03   10.01
 -15  -1   0   68.91   10.28
 -15  -1   0   53.53    5.23
 -15  -1   0   60.42    5.41
  15  -1  -1    3.69    3.44
 -15  -1   1    6.56    1.93
 -15   1   1    9.12    2.29
 -15  -1   1    7.43    1.69
 -15  -1   1   10.69    2.12
 -15  -1   1   10.40    4.32
 -15  -1   1    4.22    1.38
 -15   1   1   11.48    1.82
 -15  -1   1    6.94    1.65
  15  -1  -2   11.08    4.43
 -15  -1   2   16.18    2.79
 -15   1   2   10.55    2.67
 -15  -1   2   15.32    2.42
 -15   1   2   12.95    2.08
 -15  -1   2   23.72    2.93
 -15  -1   2   22.98    6.28
 -15  -1   2   23.40    2.66
 -15   1   2   15.26    2.16
 -15  -1   3  420.95   28.91
 -15   1   3  405.23   28.60
 -15  -1   3  471.12   29.36
 -15  -1   3  465.60   36.55
 -15   1   3  425.33   28.66
 -15  -1   3  457.73   28.92
  15  -1  -3  484.25   37.30
 -15  -1   3  443.75   29.65
 -15   1   3  413.85   29.72
 -15  -1   4  361.02   23.22
 -15   1   4  338.22   22.84
 -15  -1   4  325.74   23.39
 -15  -1   4  317.67   29.50
 -15   1   4  345.06   22.89
  15  -1  -4  339.10   30.22
 -15  -1   4  369.15   24.00
 -15   1   4  319.41   23.88
 -15  -1   5    6.52    1.94
 -15   1   5   12.68    2.66
 -15  -1   5   10.12    1.82
 -15   1   5    7.32    1.46
 -15  -1   5    8.16    1.91
 -15  -1   5    1.87    4.13
  15  -1  -5   16.70    5.56
 -15   1   6  103.65    8.02
 -15  -1   6  124.38    9.03
 -15  -1   6  114.40   14.39
  15  -1  -6  110.06   14.07
 -15  -1   6  108.76    9.02
 -15   1   6   99.56    9.00
 -15   1   7  580.19   38.21
 -15  -1   7  655.73   45.00
 -15   1   8   58.05    4.85
 -15  -1   8   65.91    9.29
 -15   1   9   42.97    3.84
  15   1  -9   38.25    4.55
 -15  -1  10 1602.46  100.72
  15  -1 -10 1513.88   95.36
  15   1 -10 1419.46   95.14
 -15  -1  11   39.87    7.30
  15  -1 -11   41.41    4.45
  15   1 -11   30.59    4.01
 -15  -1  12 1187.17   79.59
  15  -1 -12 1195.53   74.74
  15   1 -12 1103.11   74.54
  15  -1 -13    5.97    1.88
  15   1 -13    5.55    1.84
 -15  -1  14   34.57    6.51
  15  -1 -14   27.26    3.62
 -15  -1  15   20.04    5.62
  15  -1 -15   55.50    5.07
  15  -1 -16  671.11   45.67
 -15  -1  16  758.89   51.78
  15  -1 -17  459.32   30.91
 -15  -1  17  426.14   35.72
  15  -1 -18  672.12   44.87
 -15  -1  18  677.96   50.66
  15   1 -19    9.43    1.90
  15  -1 -19   10.30    4.55
  15  -1 -19   14.68    2.72
 -15  -1  20   24.49    6.50
  15  -1 -20   37.62    4.52
  15  -1 -20   37.48    7.83
 -15  -1  21   -1.80    3.33
  15  -1 -21    7.36    4.03
  15  -1 -21    3.58    1.80
  15  -1 -22  570.57   46.74
  15  -1 -22  607.39   40.55
 -15  -1  22  607.76   47.13
  15   1 -23  713.55   56.25
  15  -1 -23  725.84   55.97
 -15  -1  23  771.63   56.27
 -15   1  23  680.29   56.08
  15  -1 -23  753.90   49.15
  15   1 -24  504.73   40.81
  15  -1 -24  443.39   39.62
  15  -1 -24  499.95   33.56
 -15  -1  24  521.11   40.58
 -15   1  24  462.48   40.45
  15  -1 -25   49.06    5.36
  15  -1 -26   30.17    3.91
  15  -1 -27    6.05    1.79
  15  -1 -28  518.91   34.77
  15  -1 -29   80.83    6.97
  15  -1 -30 1086.44   69.94
  15  -1 -31   59.02    5.18
  15  -1 -32  167.72   11.93
 -15   3 -19  193.01   13.06
 -15  -3 -18    0.77    0.85
 -15   3 -18    0.75    1.02
 -15  -3 -17   32.35    3.36
 -15   3 -17   33.97    3.72
 -15  -3 -16    3.98    1.58
 -15   3 -16    4.71    1.94
 -15  -3 -15   18.92    2.65
 -15   3 -15   22.05    3.19
 -15  -3 -15   15.94    2.49
 -15   3 -15   15.49    2.48
 -15  -3 -14   98.27    7.99
 -15   3 -14  113.16    8.28
 -15  -3 -14   91.63    7.28
 -15  -3 -14   86.31    7.87
 -15   3 -14  101.65    8.71
 -15  -3 -13    8.87    2.21
 -15   3 -13    3.44    2.21
 -15  -3 -13    8.05    2.28
 -15  -3 -13   12.56    2.20
 -15   3 -13    4.25    1.77
 -15  -3 -13    4.89    1.81
 -15  -3 -13    6.92    1.55
 -15  -3 -12    9.48    2.45
 -15   3 -12    0.62    2.32
 -15  -3 -12   11.80    2.69
 -15  -3 -12   11.31    2.52
 -15   3 -12    0.91    1.69
 -15  -3 -12   10.08    2.12
 -15  -3 -12   11.45    1.94
 -15  -3 -11  184.82   14.34
 -15  -3 -11  190.63   14.01
 -15   3 -11  194.94   14.09
 -15  -3 -11  171.72   13.59
 -15  -3 -11  173.86   13.26
 -15  -3 -11  171.38   13.90
 -15   3 -11  203.68   15.12
 -15  -3 -10    6.70    2.10
 -15   3 -10    5.32    2.70
 -15  -3 -10    4.50    1.93
 -15  -3 -10    3.45    1.79
 -15   3 -10    3.44    1.83
 -15  -3 -10    2.65    1.64
 -15  -3 -10    3.83    1.39
 -15  -3 -10   -1.91    2.74
 -15   3 -10    1.89    3.50
 -15  -3  -9   26.62    4.02
 -15   3  -9   35.45    5.00
 -15  -3  -9   31.61    4.52
 -15   3  -9   43.67    4.69
 -15   3  -9   40.73    4.58
 -15  -3  -9   31.58    4.06
 -15  -3  -9   38.65    4.18
 -15  -3  -9   34.79    7.64
 -15   3  -9   34.52    7.59
 -15  -3  -8   18.72    3.27
 -15   3  -8   19.19    3.71
 -15  -3  -8   17.81    3.33
 -15   3  -8   13.90    2.85
 -15  -3  -8   13.68    2.81
 -15  -3  -8   12.50    2.59
 -15  -3  -8   11.49    5.34
 -15   3  -8   18.99    6.15
 -15  -3  -7  355.29   23.47
 -15   3  -7  310.68   22.73
 -15   3  -7  319.14   22.64
 -15  -3  -7  321.96   29.30
 -15   3  -7  272.60   28.18
 -15  -3  -7  323.85   22.71
 -15  -3  -7  327.17   22.58
 -15  -3  -7  303.10   22.81
 -15   3  -7  353.93   23.95
 -15   3  -6   61.79    6.40
 -15  -3  -6   70.66    6.58
 -15  -3  -6   62.17    6.32
 -15  -3  -6   69.90   10.98
 -15   3  -6   62.28   10.30
 -15   3  -6   76.83    6.66
 -15  -3  -6   76.37    6.98
 -15   3  -6   75.82    7.64
 -15   3  -5  164.27   12.92
 -15   3  -5  179.36   13.03
 -15  -3  -5  156.47   18.03
 -15   3  -5  145.97   18.11
 -15  -3  -5  180.64   13.19
 -15  -3  -5  169.94   13.05
 -15  -3  -5  171.53   13.28
 -15   3  -5  176.52   13.96
 -15  -3  -4   15.08    2.88
  15  -3   4   12.13    6.09
 -15   3  -4   14.00    3.04
 -15   3  -4   16.68    2.60
 -15  -3  -4   18.28    2.90
 -15  -3  -4   11.95    4.56
 -15   3  -4    8.61    4.13
 -15   3  -3  237.97   16.76
 -15  -3  -3  192.95   21.39
 -15   3  -3  229.95   22.25
 -15  -3  -3  252.33   17.04
  15  -3   3  245.78   25.27
  15   3   3  214.51   21.77
 -15  -3  -3  226.82   17.07
 -15   3  -3  238.26   17.69
 -15  -3  -2  284.42   18.52
 -15   3  -2  231.63   17.79
 -15  -3  -2  251.40   23.53
 -15   3  -2  232.88   23.13
 -15  -3  -2  264.31   18.19
 -15  -3  -2  272.58   18.52
  15  -3   2  246.55   25.66
  15   3   2  260.60   23.50
 -15  -3  -2  259.96   18.46
 -15   3  -2  240.27   18.75
 -15  -3  -1  320.37   22.14
 -15   3  -1  337.16   21.85
 -15  -3  -1  331.30   27.75
 -15   3  -1  329.35   28.08
 -15  -3  -1  315.28   21.94
 -15  -3  -1  329.59   22.35
  15  -3   1  345.46   30.49
  15   3   1  281.76   26.74
 -15  -3  -1  286.72   22.10
 -15   3  -1  320.20   22.78
  15  -3   0    2.06    2.41
  15   3   0   -1.49    2.46
 -15  -3   0    2.13    1.58
 -15   3   0    1.02    1.46
 -15  -3   0    1.96    1.34
 -15   3   0    0.31    0.98
 -15  -3   0    3.09    3.62
 -15   3   0    1.64    1.92
 -15  -3   0    3.05    1.25
 -15  -3   0    0.83    1.09
  15  -3  -1   25.98    6.90
  15   3  -1   20.58    5.52
 -15  -3   1   30.36    3.62
 -15  -3   1   29.96    3.82
 -15   3   1   30.88    4.14
 -15   3   1   31.28    3.37
 -15  -3   1   34.04    6.94
 -15   3   1   20.04    6.03
 -15  -3   1   35.40    3.63
 -15  -3   1   42.65    4.21
 -15  -3   2  197.80   14.11
 -15   3   2  189.72   14.09
 -15  -3   2  183.03   13.78
 -15  -3   2  184.41   18.79
 -15   3   2  215.11   20.52
 -15   3   2  204.62   13.59
 -15  -3   2  191.40   13.64
 -15  -3   2  189.94   14.14
  15  -3  -2  235.65   21.98
  15   3  -2  222.26   19.65
 -15  -3   2  189.06   14.27
 -15   3   2  178.74   14.49
  15  -3  -3    9.50    4.48
  15   3  -3    4.39    2.49
 -15  -3   3   10.48    2.26
 -15   3   3    4.73    2.04
 -15  -3   3    9.59    1.97
 -15   3   3   15.51    2.45
 -15  -3   3   10.82    2.04
 -15   3   3   12.19    1.79
 -15   3   3    8.30    1.75
 -15  -3   3   11.08    3.97
 -15   3   3    1.78    3.35
 -15  -3   3   10.40    2.10
 -15   3   4    6.41    2.24
 -15   3   4   10.42    2.15
 -15  -3   4   19.01    2.46
 -15   3   4    7.84    1.74
 -15  -3   4   16.28    5.09
 -15   3   4   15.00    5.19
 -15  -3   4   17.62    2.53
  15  -3  -4    9.17    4.08
  15   3  -4   11.62    4.23
 -15  -3   4   16.63    2.58
 -15   3   5  459.99   30.56
 -15  -3   5  485.92   30.28
 -15  -3   5  447.03   36.68
 -15   3   5  434.84   37.93
 -15   3   5  439.21   30.03
 -15  -3   5  459.88   30.23
  15   3  -5  429.80   31.68
  15  -3  -5  465.19   37.36
  15   3  -5  499.99   36.37
 -15  -3   5  434.87   30.40
 -15   3   5  436.95   30.68
 -15   3   6    6.23    1.78
 -15  -3   6   10.88    1.83
 -15   3   6    2.94    1.22
  15   3  -6    4.88    1.70
 -15  -3   6    5.13    3.18
 -15  -3   6    6.00    1.49
 -15   3   6   -2.05    4.16
 -15  -3   7   33.38    3.59
 -15   3   7   34.27    3.99
 -15  -3   7   29.59    6.85
 -15   3   7   31.74    7.84
 -15   3   7   25.86    3.29
 -15  -3   7   26.99    3.16
 -15  -3   8  133.54   16.87
 -15  -3   8  177.71   16.91
 -15   3   8  127.82   17.59
 -15   3   8  181.57   18.16
  15  -3  -8  177.94   12.71
  15   3  -8  165.01   12.37
 -15  -3   9   13.34    4.19
 -15   3   9   13.40    4.65
  15  -3  -9    9.91    2.06
  15   3  -9   11.81    2.25
 -15  -3  10  111.19   12.71
 -15   3  10  108.36   13.68
  15  -3 -10  103.48    8.74
  15   3 -10  113.78    8.86
 -15  -3  11  856.98   59.28
 -15   3  11  924.72   61.64
  15  -3 -11  826.80   54.21
  15   3 -11  807.20   54.11
 -15  -3  12  987.90   67.71
 -15   3  12  975.07   69.22
  15  -3 -12  939.08   62.46
  15   3 -12  978.44   62.57
 -15  -3  13  345.70   28.09
 -15   3  13  345.19   29.62
  15  -3 -13  342.16   23.33
  15   3 -13  330.39   23.29
 -15  -3  14    2.74    2.77
  15  -3 -14    1.97    1.31
  15   3 -14    1.21    1.38
 -15   3  14    1.73    2.86
  15  -3 -15  131.36   10.35
  15   3 -15  126.96   10.33
 -15  -3  15  149.59   15.02
 -15   3  15  128.57   15.62
  15  -3 -16   17.95    2.78
  15   3 -16   23.10    3.11
  15   3 -17  713.60   51.95
  15  -3 -17  715.74   51.59
  15  -3 -17  688.55   46.14
  15   3 -17  689.61   46.28
 -15  -3  17  809.04   53.04
 -15   3  17  637.68   52.90
  15   3 -18  147.96   16.64
  15  -3 -18  135.75   15.84
  15  -3 -18  149.90   12.03
  15   3 -18  160.61   12.32
 -15   3  18  169.14   19.05
  15   3 -19  338.33   30.65
  15  -3 -19  426.60   31.89
  15  -3 -19  352.53   25.27
  15   3 -19  378.85   25.58
 -15  -3  19  393.96   31.71
 -15   3  19  317.78   31.97
 -15  -3  20   11.94    4.74
 -15   3  20    8.64    5.11
  15   3 -20   11.29    2.19
  15   3 -20   11.90    4.93
  15  -3 -20    9.64    4.27
  15  -3 -20   14.67    2.58
  15   3 -20   12.81    2.62
  15   3 -21  553.20   37.12
  15   3 -21  513.74   43.22
  15  -3 -21  513.14   42.85
  15  -3 -21  554.23   37.38
  15   3 -21  577.20   37.64
 -15  -3  21  596.46   44.48
 -15   3  21  572.15   46.42
  15   3 -22  276.38   16.97
  15   3 -22  256.85   23.23
  15  -3 -22  163.57   20.51
  15  -3 -22  199.87   16.51
  15   3 -22  257.70   17.24
 -15  -3  22  283.06   24.09
 -15   3  22  147.37   21.53
  15   3 -23 1329.10   83.50
  15   3 -23 1177.70   89.81
  15  -3 -23 1340.68   90.43
  15  -3 -23 1296.90   83.66
  15   3 -23 1340.10   83.88
 -15  -3  23 1336.71   91.12
 -15   3  23 1030.63   90.81
  15   3 -24  117.74    8.61
  15   3 -24  105.96    8.66
  15   3 -25 1121.01   73.89
  15  -3 -25 1137.13   74.10
  15   3 -25 1188.14   74.32
  15   3 -26  128.69    9.52
  15   3 -26  137.82    9.90
  15   3 -27   53.99    4.93
  15  -3 -27   50.42    5.00
  15   3 -27   56.03    5.18
  15  -3 -28  199.19   13.98
  15   3 -28  190.09   13.92
  15  -3 -29  206.34   15.04
  15   3 -29  226.55   15.17
  15  -3 -30   59.19    5.07
  15   3 -30   61.40    5.12
  15  -3 -31   66.12    5.32
  15   3 -31   65.80    5.26
 -15   5 -16    0.18    0.22
  15   5  16   20.28    1.97
 -15   5 -15    0.26    0.67
 -15  -5 -15    0.15    0.25
 -15  -5 -14   92.38    6.88
 -15  -5 -14   84.26    6.42
 -15   5 -14  104.91    7.39
 -15  -5 -13  183.51   13.68
 -15  -5 -13  197.61   13.26
 -15  -5 -13  199.87   13.60
 -15  -5 -13  203.76   13.33
 -15  -5 -13  178.86   13.28
 -15   5 -13  163.31   13.64
 -15  -5 -12   37.72    4.41
 -15   5 -12   37.21    4.24
 -15  -5 -12   37.15    3.90
 -15   5 -12   38.96    3.96
 -15  -5 -12   44.20    4.30
 -15  -5 -12   49.37    4.23
 -15  -5 -12   33.07    3.93
 -15   5 -12   50.01    4.90
 -15  -5 -11   40.40    4.53
 -15   5 -11   36.93    4.51
 -15  -5 -11   40.87    4.00
 -15   5 -11   28.18    3.65
 -15  -5 -11   43.68    4.34
 -15  -5 -11   44.32    4.19
 -15  -5 -11   35.47    4.08
 -15   5 -11   38.43    4.65
 -15  -5 -10   64.56    6.11
 -15   5 -10   59.34    6.09
 -15  -5 -10   71.00    5.71
 -15   5 -10   57.42    5.37
 -15  -5 -10   52.69    5.48
 -15  -5 -10   55.23    5.40
 -15  -5 -10   56.12    5.56
 -15   5 -10   57.50    6.05
 -15  -5  -9   61.95    6.29
 -15   5  -9   72.20    6.75
 -15  -5  -9   68.97    5.92
 -15   5  -9   64.27    5.78
 -15  -5  -9   59.16    5.93
 -15  -5  -9   59.27    5.87
 -15  -5  -9   65.84    6.11
 -15   5  -9   68.32    6.63
 -15  -5  -8  174.07   12.45
 -15   5  -8  150.85   12.22
 -15  -5  -8  160.55   11.65
 -15   5  -8  141.18   11.37
 -15   5  -8  148.22   15.94
 -15  -5  -8  156.37   11.86
 -15  -5  -8  168.03   12.00
  15   5   8  132.94   16.13
 -15  -5  -8  127.67   11.53
 -15   5  -8  163.73   12.49
 -15  -5  -7    4.92    1.92
  15   5   7    6.48    3.32
 -15   5  -7   12.39    2.76
 -15  -5  -7    5.05    1.94
 -15   5  -7    6.41    1.75
 -15  -5  -7   11.70    2.35
 -15  -5  -7   15.73    2.75
 -15   5  -7    8.37    2.30
 -15   5  -7   10.18    3.83
 -15  -5  -6    2.70    1.68
  15   5   6    6.41    3.75
 -15   5  -6    5.84    2.50
 -15   5  -6    6.10    2.03
 -15  -5  -6    4.36    1.78
 -15  -5  -6    3.26    1.82
 -15   5  -6    1.45    4.17
 -15  -5  -5  297.38   25.20
 -15   5  -5  263.29   24.27
 -15  -5  -5  279.14   19.96
 -15   5  -5  272.63   20.23
  15   5   5  251.65   24.58
 -15  -5  -5  295.91   20.18
 -15   5  -5  291.46   20.51
 -15   5  -4  209.76   14.83
 -15  -5  -4  164.12   18.30
 -15   5  -4  187.59   18.74
 -15  -5  -4  191.41   14.39
  15  -5   4  214.64   22.30
  15   5   4  175.14   18.75
 -15  -5  -4  181.06   14.37
 -15   5  -4  218.26   15.09
  15  -5   3   12.23    5.12
  15   5   3   17.96    4.86
 -15  -5  -3   18.16    2.93
 -15   5  -3   11.22    2.58
 -15  -5  -3   11.95    2.45
 -15   5  -3   15.87    2.72
 -15  -5  -3    8.26    2.09
 -15  -5  -3   19.50    3.15
 -15  -5  -3   15.73    4.80
 -15   5  -3    8.33    3.72
  15  -5   2   37.14    8.31
  15   5   2   61.22    9.02
 -15  -5  -2   63.45    5.71
 -15   5  -2   57.50    5.58
 -15  -5  -2   66.07    5.63
 -15  -5  -2   58.99    5.89
 -15  -5  -2   58.25    8.72
 -15   5  -2   43.49    7.64
 -15  -5  -2   49.27    5.39
 -15   5  -2   43.19    5.35
  15  -5   1   16.81    5.65
  15   5   1   21.35    5.35
 -15  -5  -1   14.36    2.58
 -15   5  -1   10.41    2.55
 -15  -5  -1   22.52    3.05
 -15  -5  -1   18.38    2.62
 -15  -5  -1   16.20    4.57
 -15   5  -1   14.64    4.37
 -15  -5  -1   11.63    2.59
  15   5   0   60.99    8.96
 -15  -5   0   68.45    6.01
 -15  -5   0   64.04    5.65
 -15  -5   0   64.58    8.94
 -15   5   0   48.69    8.16
 -15  -5   0   48.51    5.74
 -15   5   0   62.31    6.01
 -15  -5   1   29.12    3.54
  15   5  -1   21.01    4.77
 -15  -5   1   27.31    3.21
 -15  -5   1   19.54    4.86
 -15   5   1   21.08    5.14
 -15  -5   1   27.80    3.78
  15  -5  -1   20.31    5.67
  15   5  -1   32.41    6.03
 -15   5   1   29.30    3.67
 -15  -5   2    6.30    1.76
 -15   5   2    1.75    1.36
  15   5  -2    1.05    1.94
 -15  -5   2    6.51    3.05
 -15   5   2    2.66    2.20
 -15  -5   2    2.24    1.58
  15   5  -2    2.64    3.10
 -15   5   2    1.21    1.49
 -15  -5   3  540.87   37.99
 -15  -5   3  641.70   43.49
 -15   5   3  562.15   42.98
 -15   5   3  541.05   38.31
  15   5  -3  598.55   41.41
 -15  -5   3  621.71   38.52
 -15  -5   4  186.66   18.56
  15   5  -4  185.28   16.97
 -15  -5   4  208.10   14.99
 -15   5   4  201.04   15.13
 -15   5   5 1104.84   77.48
 -15  -5   5 1296.57   77.52
 -15  -5   5 1487.35   84.83
 -15   5   5 1169.84   83.65
 -15   5   5 1108.05   78.22
  15   5  -5 1283.73   81.02
 -15  -5   5 1263.96   78.09
  15   5  -5 1192.54   77.59
 -15   5   6   64.05    5.16
 -15  -5   6   47.84    4.58
 -15   5   6   62.15    5.82
 -15  -5   6   61.04    8.76
 -15   5   6   49.47    8.56
  15   5  -6   42.25    6.26
 -15  -5   6   53.27    5.12
  15   5  -6   44.77    4.64
 -15   5   7  551.31   38.22
 -15  -5   7  598.87   38.03
 -15  -5   7  655.94   44.99
 -15   5   7  556.22   44.72
 -15   5   7  544.04   38.93
 -15  -5   7  597.58   38.33
  15   5  -7  587.36   38.13
 -15   5   7  577.53   38.32
 -15   5   8   72.49    6.99
 -15  -5   8   96.98    7.10
 -15  -5   8  107.97   12.42
 -15   5   8   64.19    7.36
 -15   5   8   65.73   11.06
 -15  -5   8  102.80    7.38
  15   5  -8   97.25    7.18
 -15   5   8   82.81    7.12
 -15   5   9    8.39    1.70
 -15   5   9    0.79    1.47
 -15  -5   9    3.46    1.36
 -15  -5   9   -1.62    3.28
 -15   5   9    3.91    3.24
  15   5  -9    3.16    1.24
 -15  -5  10   93.11    6.74
 -15   5  10   71.29    6.73
 -15  -5  10   56.34   10.04
 -15   5  10   59.27   11.05
  15   5 -10   71.77    6.32
 -15   5  10   74.15    6.36
 -15  -5  11  317.43   20.06
 -15   5  11  260.75   20.19
 -15  -5  11  291.71   26.53
  15   5 -11  299.06   19.89
 -15  -5  12  196.31   18.33
  15   5 -12  197.02   13.69
 -15   5  13   89.31   12.37
  15  -5 -13   77.60    6.84
  15   5 -13   82.28    6.98
  15   5 -14   66.64    6.12
  15  -5 -14   72.69    6.04
  15   5 -14   66.28    6.00
 -15  -5  14   68.30    9.80
 -15   5  14   62.60   10.70
 -15  -5  15 1396.75   91.61
 -15   5  15 1286.17   93.04
  15   5 -15 1322.63   85.72
  15   5 -15 1290.80   90.10
  15  -5 -15 1285.40   89.89
  15  -5 -15 1329.48   85.53
  15   5 -15 1374.74   85.68
 -15  -5  16   10.03    3.88
 -15   5  16   24.31    6.45
  15   5 -16   16.23    2.62
  15   5 -16   17.82    4.58
  15  -5 -16   17.13    4.41
  15  -5 -16   21.41    2.87
  15   5 -16   13.46    2.51
 -15  -5  17 1988.86  124.16
 -15   5  17 1809.05  125.61
  15   5 -17 1901.77  117.74
  15   5 -17 1844.57  122.63
  15  -5 -17 1722.96  121.94
  15  -5 -17 1706.22  117.28
  15   5 -17 1956.93  117.63
 -15   5  18  115.32   15.00
  15   5 -18  104.91    8.74
  15  -5 -18  101.64   12.02
  15  -5 -18  109.50    8.61
  15   5 -18  116.91    8.81
  15   5 -18   79.43   11.53
 -15   5  19  648.99   54.37
  15   5 -19  714.23   47.38
  15   5 -19  737.01   52.34
  15  -5 -19  676.06   46.76
  15   5 -19  773.90   47.11
  15   5 -20   10.24    2.32
  15   5 -20    5.48    2.82
  15  -5 -20   10.08    1.99
  15   5 -20    7.68    1.91
 -15   5  20    2.01    3.74
  15   5 -21   15.99    2.74
  15  -5 -21   10.53    2.09
  15   5 -21   14.24    2.29
 -15   5  21   10.01    4.75
  15   5 -22   31.67    3.87
  15  -5 -22   34.01    3.53
  15   5 -22   24.88    3.25
  15   5 -23  545.99   36.47
  15  -5 -23  517.14   35.76
  15   5 -23  574.04   35.99
  15   5 -24    9.80    2.23
  15  -5 -24   14.53    2.09
  15   5 -24    7.58    1.75
  15   5 -25  132.70   11.05
  15  -5 -25  147.80   10.68
  15   5 -25  158.02   10.81
  15   5 -26   12.05    2.24
  15  -5 -26   11.95    1.91
  15   5 -26   13.37    1.92
  15   5 -27   79.91    6.11
  15  -5 -27   68.76    5.43
  15   5 -27   61.28    5.32
  15   5 -28  204.32    6.27
  15   5 -28   -0.18    0.43
  15   5 -29  692.33   44.60
 -15  -7 -15    1.16    0.66
 -15  -7 -14    3.60    1.00
 -15  -7 -14    3.00    0.77
 -15  -7 -13   50.89    4.24
 -15  -7 -13   51.40    4.10
  15   7  13   46.42    4.14
 -15  -7 -12   18.58    2.25
 -15  -7 -12   13.34    1.94
  15   7  12   13.99    1.94
 -15   7 -11   18.61    3.08
 -15  -7 -11   17.24    2.49
 -15  -7 -11   19.68    2.49
  15   7  11   25.73    2.63
 -15   7 -10   48.39    5.03
 -15  -7 -10   38.47    3.95
 -15  -7 -10   36.84    3.93
  15   7  10   42.58    3.94
 -15   7  -9   92.82    8.03
 -15  -7  -9   83.78    7.01
 -15  -7  -9   88.42    7.15
  15   7   9   81.74    6.83
 -15  -7  -8   58.52    5.42
 -15   7  -8   67.79    6.47
 -15  -7  -8   61.33    5.43
 -15  -7  -8   55.33    5.39
  15   7   8   53.84    5.06
 -15  -7  -7    6.89    1.84
 -15   7  -7    4.28    2.20
 -15  -7  -7    5.72    1.59
  15   7   7    7.84    1.68
 -15   7  -6    4.85    2.06
 -15  -7  -6    2.95    1.39
  15   7   6    6.05    1.44
 -15   7  -5   78.16    7.60
  15   7   5   81.10   10.68
 -15  -7  -5   78.09    6.87
 -15  -7  -5   81.35    7.22
  15   7   5   81.46    6.59
 -15   7  -4  285.05   20.23
  15   7   4  271.34   24.36
 -15  -7  -4  266.70   19.25
 -15  -7  -4  267.24   19.72
  15   7   4  286.43   18.97
  15   7   3  205.56   19.36
 -15  -7  -3  190.71   14.24
 -15  -7  -3  199.71   14.87
  15   7   3  197.95   13.86
 -15  -7  -2  130.70    9.67
  15   7   2   98.02   12.71
 -15  -7  -2  107.61    9.16
 -15  -7  -2  133.33   10.13
  15   7   2  118.80    8.89
 -15  -7  -1  195.70   13.48
 -15   7  -1  154.10   13.53
  15   7   1  165.10   17.17
 -15  -7  -1  181.22   13.03
 -15  -7  -1  188.15   13.81
 -15  -7   0  560.60   35.89
  15   7   0  597.01   41.21
 -15  -7   0  507.76   35.28
 -15  -7   0  533.58   36.18
 -15   7   0  534.25   36.29
 -15  -7   1  139.94   10.54
 -15   7   1  111.70   10.47
  15   7  -1  135.81   14.12
 -15  -7   1  154.55   11.06
 -15  -7   2   43.49    4.64
 -15   7   2   46.31    4.98
  15   7  -2   49.58    7.52
 -15  -7   2   46.86    5.04
 -15  -7   3   15.28    2.54
 -15   7   3    7.15    2.10
 -15   7   3    9.05    2.55
  15   7  -3   20.42    4.51
 -15  -7   3   18.30    2.82
 -15  -7   4  153.32   11.45
 -15   7   4  157.17   12.40
 -15   7   4  150.97   11.69
  15   7  -4  135.13   14.38
 -15  -7   4  145.78   11.52
  15   7  -5   44.21    6.60
 -15  -7   5   54.91    4.70
 -15   7   6  142.95   12.48
  15   7  -6  145.00   14.51
 -15  -7   6  165.79   11.70
 -15   7   6  148.80   12.05
 -15   7   7    2.91    1.79
 -15   7   7    8.08    2.44
 -15  -7   7    7.08    1.64
 -15   7   8  276.66   21.19
 -15   7   8  294.19   20.60
 -15   7   9   86.33    8.20
 -15   7   9   77.61    7.32
 -15   7  10 2113.84  144.87
 -15   7  10 2362.11  144.06
 -15   7  11  231.53   18.75
 -15   7  11  257.52   17.95
 -15   7  12 1336.76   86.23
  15   7 -13  293.33   19.06
 -15   7  13  242.75   18.78
  15   7 -14 1141.10   73.80
  15   7 -15    2.90    1.58
  15   7 -16   85.56    7.45
  15   7 -17  145.47   11.27
  15   7 -18  106.44    8.73
  15   7 -18   96.75    8.54
  15  -7 -18  114.44    9.52
  15   7 -19    8.31    2.12
  15   7 -19    5.72    1.85
  15  -7 -19    3.44    1.85
  15   7 -20   29.88    3.65
  15   7 -21   46.05    4.80
  15   7 -22  932.04   60.56
  15   7 -23  294.73   19.82
  15   7 -23  274.40   19.68
  15   7 -24 1465.99   92.32
  15   7 -24 1422.86   92.08
  15   7 -25  123.48    9.34
  15   7 -26   73.78    6.00
  15   7 -27   12.35    1.78
  15   7 -28   81.48    6.05
 -15  -9 -12  520.00   31.72
 -15  -9 -12  473.90   31.64
 -15  -9 -11   54.29    4.12
 -15  -9 -11   53.05    4.19
 -15  -9 -10  201.49   13.42
 -15  -9 -10  196.49   13.49
 -15   9  -9   10.82    2.26
 -15  -9  -9   14.29    1.78
 -15  -9  -9   13.01    1.86
 -15   9  -8  179.81   12.73
 -15  -9  -8  160.36   11.54
 -15  -9  -7   47.39    4.26
 -15   9  -7   56.15    5.43
 -15   9  -6  201.81   14.69
 -15  -9  -6  186.23   13.39
 -15  -9  -6  197.05   13.82
 -15  -9  -5   65.90    5.42
 -15  -9  -5   64.94    5.77
 -15  -9  -4  299.82   19.76
 -15  -9  -4  281.20   20.21
 -15  -9  -3    3.45    1.23
 -15  -9  -3    3.77    1.56
 -15  -9  -2   28.76    3.16
 -15  -9  -2   36.77    3.92
 -15   9  -2   30.39    4.16
 -15   9  -1    2.53    1.63
 -15  -9  -1    1.60    1.44
 -15  -9   0    7.05    1.60
 -15  -9   0    5.67    1.87
 -15  -9   1    6.68    1.53
 -15  -9   1    6.45    1.84
 -15  -9   2  166.58   11.75
 -15   9   2  146.40   12.30
 -15  -9   2  159.24   12.04
 -15  -9   3  288.29   20.27
 -15   9   3  306.27   21.19
 -15  -9   3  294.74   20.61
 -15  -9   4  655.40   40.86
 -15   9   4  582.83   41.31
 -15  -9   4  615.01   40.93
 -15  -9   5    9.28    2.08
 -15   9   5   13.53    2.55
 -15   9   5   17.09    3.20
 -15  -9   5   10.58    2.15
 -15  -9   6  820.95   51.74
 -15   9   6  788.82   52.14
 -15   9   6  756.64   52.90
 -15  -9   6  792.74   51.59
 -15   9   7  315.97   21.24
 -15  -9   7  264.51   19.26
 -15   9   7  275.17   19.90
 -15   9   7  301.03   20.94
 -15   9   8   30.11    4.39
 -15   9   8   38.04    4.12
 -15   9   8   32.53    4.58
 -15   9   9   23.00    3.75
 -15   9   9   27.29    4.26
 -15   9   9   30.13    3.51
 -15   9  10  238.25   17.98
 -15   9  10  237.53   16.58
 -15   9  10  220.43   17.29
 -15   9  11   10.15    2.61
 -15   9  11   12.72    3.25
  15   9 -11   13.65    2.35
 -15   9  12  237.91   17.28
  15   9 -12  220.86   15.73
 -15   9  12  206.50   16.38
 -15   9  13   15.89    2.99
 -15   9  13   21.44    3.82
  15   9 -13   22.17    2.90
 -15   9  14  120.90   10.22
  15   9 -14  118.98    8.88
 -15   9  14   94.78    9.09
 -15   9  15  108.94    9.41
  15   9 -15  102.08    8.04
  15   9 -15   93.26    7.87
 -15   9  15   92.37    8.28
 -15   9  16 1224.84   81.23
  15   9 -16 1235.78   79.86
  15   9 -16 1262.47   79.90
 -15   9  17  492.88   31.88
  15   9 -17  449.02   30.32
  15   9 -17  424.96   30.20
  15  -9 -17  478.57   31.25
 -15   9  18 1600.29  102.91
  15   9 -18 1527.12  101.56
  15   9 -18 1594.70  101.58
  15  -9 -18 1677.34  102.40
 -15   9  19    5.71    1.98
  15  -9 -19    1.53    1.72
 -15   9  20  424.21   12.17
  15  -9 -20    0.30    0.44
 -15   9  21   26.24    3.66
 -15   9  22    9.22    2.22
 -15   9  23   74.04    6.57
  15   9 -23   76.67    5.81
  15   9 -24   61.46    4.85
  15   9 -25    0.61    0.65
 -15 -11  -7  283.45   18.49
 -15 -11  -6   53.22    4.16
 -15 -11  -5   96.25    6.98
 -15  11  -4   41.02    3.99
 -15 -11  -4   35.59    3.33
 -15  11  -3  352.68   22.73
 -15 -11  -3  319.20   21.93
 -15  11  -2  123.06    9.71
 -15 -11  -2  127.65    9.16
 -15  11  -1  613.93   39.73
 -15 -11  -1  593.41   39.04
 -15  11   0   90.97    8.07
 -15 -11   0  107.08    7.69
 -15  11   1  125.87   10.04
 -15 -11   1  133.20    9.55
 -15  11   2   38.98    4.43
 -15 -11   2   51.57    4.29
 -15  11   3   19.77    2.78
 -15 -11   3   15.23    2.14
 -15  11   4    3.50    1.54
 -15 -11   4   10.93    1.61
 -15  11   5   63.07    4.09
 -15 -11   5   64.20    3.21
 -15  11   6    0.96    1.15
  15  11  -6    0.18    0.41
 -15  11   7   32.81    3.51
  15  11  -7   32.53    3.04
  15  11  -7   35.66    3.51
  15  11  -8   64.88    5.28
  15  11  -8   74.42    5.76
  15  11  -9  270.13   18.29
  15  11  -9  280.75   18.69
 -15 -11  10  281.17   19.23
 -15  11  10  296.43   20.31
  15  11 -10  274.87   19.11
  15  11 -10  309.79   19.58
 -15 -11  11  939.61   61.96
  15  11 -11  919.15   61.86
  15  11 -11  989.54   62.26
 -15  11  11 1127.86   63.41
 -15 -11  12  429.32   28.25
  15  11 -12  401.14   28.12
  15  11 -12  450.13   28.51
 -15  11  12  476.08   29.42
 -15 -11  13  313.41   20.94
 -15  11  13  362.07   22.13
  15  11 -13  300.23   20.83
  15  11 -13  307.82   21.07
  15 -11 -13  320.41   21.90
  15  11 -14   31.18    3.00
  15  11 -14   35.70    3.25
  15 -11 -14   30.29    3.74
  15  11 -15   22.89    2.40
  15  11 -15   22.02    2.49
  15 -11 -15   27.36    3.19
  15  11 -16    8.07    1.28
  15 -11 -16    7.98    1.71
  15  11 -17  182.71   12.59
  15 -11 -17  192.49   13.13
  15  11 -18   47.07    2.32
  15 -11 -18    0.18    0.44
  15  11 -19   41.82    3.33
  15 -13  -5  437.94   28.42
  15 -13  -6    3.76    0.99
  15  13  -7  711.62   46.20
  15 -13  -7  756.54   46.67
  15  13  -8   49.90    3.50
  15 -13  -8   40.20    3.76
 -16   0 -19    0.36    0.81
 -16   0 -18    7.55    1.57
 -16   0 -17    0.30    1.69
 -16   0 -16  247.94   16.76
 -16   0 -16  226.13   16.75
 -16   0 -15    3.36    2.16
 -16   0 -15    6.21    2.10
 -16   0 -14 2066.16  126.89
 -16   0 -14 1900.65  126.84
 -16   0 -13   11.29    2.89
 -16   0 -13   13.65    3.04
 -16   0 -12  687.94   46.51
 -16   0 -12  821.63   46.93
 -16   0 -12  657.17   44.99
 -16   0 -12  669.02   46.44
 -16   0 -11   -1.13    1.62
 -16   0 -11    0.55    1.77
 -16   0 -11    1.87    1.15
 -16   0 -10   18.22    3.69
 -16   0 -10   24.09    3.91
 -16   0 -10   28.46    4.06
 -16   0 -10   25.85    3.13
 -16   0 -10   22.04    6.98
 -16   0  -9    0.59    1.62
 -16   0  -9    1.76    1.20
 -16   0  -9   -2.21    3.66
 -16   0  -8   15.83    3.38
 -16   0  -8   19.25    2.82
 -16   0  -8   26.59    7.42
 -16   0  -7    2.29    2.23
 -16   0  -7    2.13    1.32
 -16   0  -7    2.58    1.40
 -16   0  -7   -2.17    4.02
 -16   0  -6  236.76   24.66
 -16   0  -6  255.77   17.67
 -16   0  -6  234.99   17.25
 -16   0  -6  248.13   18.34
 -16   0  -5    0.54    1.84
 -16   0  -5    1.62    1.34
 -16   0  -5   -0.37    1.09
 -16   0  -5    2.05    3.78
 -16   0  -4  193.19   14.64
 -16   0  -4  219.95   21.89
 -16   0  -4  192.65   14.17
 -16   0  -4  196.35   14.05
 -16   0  -4  182.71   14.73
 -16   0  -3    4.61    1.76
 -16   0  -3    3.37    1.40
 -16   0  -3    3.86    3.57
 -16   0  -3    3.21    1.55
 -16   0  -2   34.06    4.46
  16   0   2   22.82    6.86
 -16   0  -2   39.22    4.02
 -16   0  -2   39.83    8.30
  16   0   1   -1.86    2.18
 -16   0  -1    2.47    1.73
 -16   0  -1   -1.87    3.79
 -16   0  -1    5.06    1.45
 -16   0   0  790.65   55.59
 -16   0   0  711.04   47.01
  16   0   0  738.57   54.94
 -16   0   0  713.42   47.85
  16   0  -1   -1.83    1.51
 -16   0   1    0.49    1.34
 -16   0   1    2.07    1.28
 -16   0   1    1.89    3.83
 -16   0   1    0.97    1.03
 -16   0   2  193.82   14.10
 -16   0   2  206.57   14.62
 -16   0   2  216.75   21.26
 -16   0   2  197.16   14.03
  16   0  -2  180.34   20.06
 -16   0   2  191.08   14.86
  16   0  -3    1.87    2.67
 -16   0   3    2.47    1.74
 -16   0   3    1.93    1.16
 -16   0   3    0.40    1.38
 -16   0   3   -1.98    4.32
 -16   0   3    0.91    1.00
 -16   0   4  269.73   18.55
 -16   0   4  263.22   19.05
 -16   0   4  252.99   25.73
 -16   0   4  274.49   18.48
  16   0  -4  273.55   25.61
 -16   0   4  266.24   19.48
 -16   0   5    7.95    2.06
 -16   0   5    2.42    1.16
 -16   0   5    3.74    1.34
 -16   0   5   12.49    5.45
 -16   0   5    1.14    1.07
  16   0  -5   13.43    4.76
 -16   0   6  638.81   41.09
 -16   0   6  611.12   41.72
 -16   0   6  554.57   49.12
 -16   0   6  651.48   40.99
  16   0  -6  679.32   49.89
 -16   0   6  599.75   42.02
 -16   0   7    4.33    1.40
 -16   0   7    9.55    2.08
 -16   0   7    6.35    3.51
 -16   0   7    3.23    1.13
 -16   0   8  414.53   28.66
 -16   0   8  455.03   35.59
 -16   0   8  447.03   28.62
 -16   0   9    3.20    2.97
  16   0  -9    4.35    1.81
 -16   0  10 1905.87  126.14
  16   0 -10 1862.83  120.10
 -16   0  11    4.66    3.85
  16   0 -11    0.48    1.53
 -16   0  12   26.29    5.99
  16   0 -12   18.09    3.19
  16   0 -13   -0.96    1.63
 -16   0  13    6.22    3.40
  16   0 -14  674.60   44.10
 -16   0  14  614.68   49.21
 -16   0  15    8.07    4.02
  16   0 -15    5.35    1.70
  16   0 -16 1559.95   99.90
 -16   0  16 1511.90  105.83
 -16   0  17    1.73    3.50
  16   0 -17    1.01    1.73
  16   0 -18 3904.00  248.08
 -16   0  18 3934.71  255.14
  16   0 -19    3.69    3.42
  16   0 -19    4.22    2.07
  16   0 -20 2757.32  180.53
  16   0 -20 2754.48  173.07
 -16   0  20 2526.44  179.98
 -16   0  21   -1.95    5.36
  16   0 -21    2.18    1.97
 -16   0  22   13.86    4.96
  16   0 -22    9.92    4.69
  16   0 -22   10.94    2.77
 -16   0  23    1.99    2.84
  16   0 -23    3.98    3.68
  16   0 -23   -0.54    1.61
 -16   0  24    5.90    4.00
  16   0 -24    1.98    3.29
  16   0 -24    9.49    2.34
  16   0 -25    5.04    1.94
  16   0 -26   17.66    2.92
  16   0 -27    0.89    1.77
  16   0 -28 1661.02  106.48
  16   0 -29    0.38    1.42
  16   0 -30 1859.95  118.46
  16   0 -31    2.61    1.26
  16   0 -32  615.62   40.03
 -16  -2 -18  286.85   18.61
 -16   2 -18  272.28   18.76
 -16  -2 -17  163.92   12.59
 -16   2 -17  207.66   13.19
 -16  -2 -16    1.21    0.97
 -16   2 -16    1.81    1.27
 -16  -2 -15   38.54    4.02
 -16   2 -15   42.52    4.18
 -16  -2 -15   32.26    3.88
 -16   2 -15   43.11    4.57
 -16  -2 -14   67.49    4.49
 -16   2 -14   64.32    4.52
 -16  -2 -14   55.27    4.14
 -16   2 -14   60.92    4.83
 -16  -2 -13    9.89    2.36
 -16   2 -13   10.28    2.67
 -16  -2 -13   13.88    2.68
 -16  -2 -13    8.56    2.14
 -16   2 -13    6.19    2.08
 -16  -2 -13    8.30    1.60
 -16  -2 -12   -1.94    1.84
 -16   2 -12   -1.18    2.12
 -16  -2 -12    0.53    1.59
 -16  -2 -12    0.47    1.45
 -16   2 -12    4.33    2.03
 -16  -2 -12    0.78    1.36
 -16  -2 -12    2.12    1.17
 -16  -2 -11   58.36    6.68
 -16  -2 -11   71.09    6.76
 -16   2 -11  105.25    7.70
 -16  -2 -11   63.68    6.23
 -16  -2 -11   59.60    5.88
 -16  -2 -11   63.83    6.64
 -16   2 -11   98.49    7.97
 -16  -2 -10  237.85   18.03
 -16  -2 -10  287.88   18.30
 -16   2 -10  243.51   17.86
 -16  -2 -10  298.07   25.92
 -16   2 -10  220.82   23.73
 -16  -2 -10  217.38   17.17
 -16  -2 -10  246.18   17.04
 -16  -2 -10  231.71   17.81
 -16   2 -10  217.17   18.08
 -16  -2  -9  145.78   12.52
 -16   2  -9  179.93   12.81
 -16   2  -9  228.78   21.34
 -16  -2  -9  146.76   11.93
 -16  -2  -9  141.11   11.62
 -16  -2  -9  128.38   17.21
 -16  -2  -9  134.07   12.17
 -16   2  -9  223.89   14.24
 -16  -2  -8 1608.52  100.61
 -16   2  -8 1445.77  100.02
 -16  -2  -8 1709.86  109.28
 -16   2  -8 1532.45  108.27
 -16  -2  -8 1627.22   99.93
 -16  -2  -8 1588.60   99.58
 -16  -2  -8 1459.48  100.14
 -16   2  -8 1544.57  100.89
 -16  -2  -7  413.52   31.82
 -16   2  -7  515.31   32.20
 -16  -2  -7  369.29   37.44
 -16   2  -7  516.34   40.33
 -16  -2  -7  474.01   31.64
 -16   2  -7  474.06   31.04
 -16  -2  -7  427.25   31.21
 -16   2  -7  540.11   31.66
 -16  -2  -7  380.53   31.53
 -16   2  -7  556.96   33.25
 -16  -2  -6  548.85   36.14
 -16   2  -6  484.89   35.58
 -16   2  -6  550.60   35.32
 -16  -2  -6  566.63   43.55
 -16   2  -6  533.90   43.49
 -16  -2  -6  579.47   35.77
 -16   2  -6  478.52   34.79
 -16  -2  -6  564.65   35.50
 -16  -2  -6  510.81   35.86
 -16   2  -6  509.11   36.37
 -16   2  -5  371.45   24.93
 -16  -2  -5  329.34   31.01
 -16   2  -5  400.23   32.74
 -16  -2  -5  355.72   24.65
 -16   2  -5  370.50   24.21
 -16  -2  -5  355.15   24.51
 -16  -2  -5  302.08   24.64
 -16   2  -5  378.47   25.71
 -16   2  -4  409.33   29.44
 -16  -2  -4  486.12   37.23
 -16   2  -4  425.70   36.71
 -16  -2  -4  450.23   29.57
 -16   2  -4  422.24   28.97
 -16  -2  -4  466.30   29.63
  16  -2   4  464.33   39.28
  16   2   4  413.78   35.80
 -16  -2  -4  395.53   29.64
 -16   2  -4  455.47   30.51
  16  -2   3    9.24    5.08
 -16  -2  -3    3.88    1.91
 -16   2  -3   12.08    2.86
  16   2   3    7.05    4.15
 -16   2  -3   10.84    2.13
 -16  -2  -3   10.62    2.19
 -16  -2  -3    1.81    3.70
 -16   2  -3   13.19    5.19
 -16   2  -3    8.39    1.89
  16  -2   2   82.85   12.66
  16   2   2   54.75    9.48
 -16   2  -2   63.73    6.26
 -16  -2  -2   71.84    6.39
 -16  -2  -2   63.43   10.44
 -16   2  -2   75.82   11.28
 -16   2  -2   77.54    6.24
 -16  -2  -2   74.05    6.84
 -16   2  -2   72.90    7.21
  16  -2   1   17.42    5.99
  16   2   1    1.67    2.43
 -16  -2  -1    4.65    2.01
 -16   2  -1   17.54    3.20
 -16   2  -1   17.13    2.42
 -16  -2  -1    1.74    3.24
 -16   2  -1   12.90    5.07
 -16  -2  -1    3.29    1.39
 -16   2  -1   13.59    2.10
 -16  -2  -1    5.26    1.66
 -16   2   0  434.33   30.43
 -16  -2   0  489.89   37.59
 -16   2   0  427.26   37.26
 -16  -2   0  481.66   30.54
 -16  -2   0  479.86   30.86
  16  -2   0  424.53   38.32
  16   2   0  436.22   36.52
 -16  -2   0  427.34   30.95
 -16   2   0  467.33   31.59
  16  -2  -1   23.16    7.52
  16   2  -1   40.75    7.60
 -16  -2   1   35.19    4.36
 -16   2   1   30.97    4.45
 -16  -2   1   29.35    7.06
 -16   2   1   37.46    8.06
 -16  -2   1   36.57    3.80
 -16  -2   1   43.28    4.30
 -16   2   2  396.06   28.26
 -16  -2   2  413.57   28.09
 -16  -2   2  479.19   35.87
 -16   2   2  380.79   34.80
 -16  -2   2  407.31   27.67
 -16   2   2  409.01   27.75
 -16  -2   2  443.35   28.24
  16  -2  -2  427.20   36.40
  16   2  -2  426.73   34.31
 -16  -2   2  439.18   28.72
 -16   2   2  401.76   28.88
  16  -2  -3  110.66   14.51
  16   2  -3   94.01   12.47
 -16  -2   3   92.87    7.75
 -16   2   3  111.41    8.32
 -16  -2   3   87.32    7.68
 -16  -2   3  106.56   13.54
 -16   2   3   97.06   13.60
 -16   2   3  101.53    7.56
 -16  -2   3   91.34    7.67
 -16  -2   3   77.76    7.91
 -16   2   3   92.61    8.57
 -16  -2   4  282.08   20.07
 -16   2   4  300.36   20.51
 -16  -2   4  315.75   20.33
 -16  -2   4  294.54   26.76
 -16   2   4  264.86   26.92
 -16   2   4  265.57   19.65
 -16  -2   4  316.96   20.18
  16  -2  -4  343.93   29.24
  16   2  -4  350.76   27.33
 -16  -2   4  266.63   20.42
 -16   2   4  271.21   20.76
 -16  -2   5   50.05    4.71
 -16   2   5   56.44    5.21
 -16  -2   5   54.57    4.89
 -16  -2   5   34.01    8.05
 -16   2   5   25.97    7.95
 -16   2   5   46.67    4.37
 -16  -2   5   47.57    4.57
 -16  -2   5   51.49    5.19
 -16   2   5   38.40    5.00
  16  -2  -5   28.64    7.76
  16   2  -5   53.57    9.13
 -16   2   6  236.09   17.16
 -16  -2   6  244.72   16.88
 -16  -2   6  205.86   22.54
 -16   2   6  245.05   24.98
 -16  -2   6  251.39   16.53
 -16   2   6  206.23   17.13
 -16   2   7   62.35    5.27
 -16  -2   7   63.55    6.03
 -16   2   7   73.12    6.58
 -16  -2   7   70.43   11.40
 -16   2   7   61.64   11.46
 -16  -2   7   72.03    5.82
 -16   2   8  114.04    8.52
 -16  -2   8  137.61    9.72
 -16   2   8  129.73   10.01
 -16   2   8   86.77   14.93
 -16  -2   8  109.04   14.87
 -16  -2   8  113.74    8.89
 -16  -2   9  262.40   24.62
 -16  -2   9  270.61   19.29
  16  -2  -9  304.82   20.66
  16   2  -9  289.10   20.30
 -16  -2  10 1080.73   71.72
  16  -2 -10  970.87   65.72
  16   2 -10 1080.31   65.78
 -16  -2  11  625.75   47.34
 -16   2  11  631.71   48.63
  16  -2 -11  658.10   42.34
  16   2 -11  613.53   42.05
 -16  -2  12  436.32   32.20
 -16   2  12  356.13   32.16
  16  -2 -12  366.68   26.50
  16   2 -12  398.48   26.65
 -16  -2  13  344.14   26.80
 -16   2  13  315.13   27.54
  16  -2 -13  289.73   21.27
  16   2 -13  297.91   21.24
  16   2 -14   41.02    4.43
  16  -2 -14   25.47    3.79
 -16  -2  14   52.57    8.50
 -16   2  14   37.51    7.82
  16  -2 -15   37.37    4.19
 -16  -2  15   36.93    7.14
 -16   2  15   25.65    6.73
  16   2 -15   28.67    3.80
  16  -2 -16   96.26    7.90
  16   2 -16   80.37    7.64
 -16  -2  16  105.80   12.61
 -16  -2  17    3.27    3.89
 -16   2  17    5.86    4.63
  16  -2 -17   12.84    2.65
  16   2 -17   16.00    2.78
 -16  -2  18   30.49    6.72
 -16   2  18   26.35    6.85
  16  -2 -18   24.18    3.59
  16   2 -18   18.85    3.28
 -16  -2  19   33.23    7.52
 -16   2  19   25.14    7.64
  16   2 -19   39.05    4.51
  16   2 -19   40.75    7.89
  16  -2 -19   38.16    7.47
  16  -2 -19   28.05    3.95
 -16  -2  20   16.20    6.38
 -16   2  20    6.47    5.43
  16   2 -20   12.23    2.30
  16   2 -20    9.14    4.86
  16  -2 -20   23.14    6.13
  16  -2 -20   16.48    2.97
  16   2 -20   17.54    2.97
  16   2 -21  863.89   56.32
  16   2 -21  806.88   63.52
  16  -2 -21  880.25   63.91
  16  -2 -21  920.40   57.27
  16   2 -21  843.34   57.09
 -16  -2  21  914.25   64.49
 -16   2  21  767.79   64.52
  16   2 -22  302.52   19.84
  16   2 -22  284.96   26.89
  16  -2 -22  205.68   24.58
  16  -2 -22  287.49   20.45
  16   2 -22  276.40   20.47
 -16  -2  22  356.51   28.36
 -16   2  22  231.20   26.82
  16   2 -23  786.77   52.12
  16   2 -23  638.71   58.37
  16  -2 -23  827.43   60.23
  16  -2 -23  861.76   53.10
  16   2 -23  821.58   53.06
 -16  -2  23  840.82   60.41
 -16   2  23  712.26   60.59
  16   2 -24  775.85   51.45
  16  -2 -24  805.68   52.26
  16   2 -24  798.45   52.34
  16  -2 -25  649.55   42.60
  16   2 -25  626.60   42.54
  16  -2 -26  185.00   14.08
  16   2 -26  193.34   14.25
  16  -2 -27  181.56   13.11
  16   2 -27  166.97   12.99
  16  -2 -28   46.94    4.60
  16   2 -28   36.55    4.34
  16  -2 -29   22.12    2.88
  16   2 -29   20.16    2.87
  16  -2 -30  187.80   13.60
  16   2 -30  196.52   13.62
  16  -2 -31    4.52    1.44
  16   2 -31    3.12    1.16
  16  -2 -32    1.30    0.91
  16   2 -32    2.80    1.01
 -16  -4 -16    2.78    1.04
 -16   4 -16   10.49    1.63
 -16  -4 -15  883.40   60.06
 -16   4 -15 1025.70   60.74
 -16  -4 -14    3.96    1.78
 -16   4 -14    4.94    2.14
 -16  -4 -14    7.34    1.78
 -16  -4 -14    9.88    1.91
 -16  -4 -14    6.12    1.27
 -16  -4 -13  693.41   46.50
 -16  -4 -13  737.07   46.10
 -16   4 -13  715.64   46.15
 -16  -4 -13  704.08   46.14
 -16  -4 -13  696.94   45.74
 -16  -4 -13  667.70   46.14
 -16   4 -13  763.80   47.04
 -16  -4 -12    3.75    1.66
 -16   4 -12    2.50    1.77
 -16  -4 -12    6.16    2.01
 -16  -4 -12    5.01    1.58
 -16   4 -12    3.48    1.54
 -16  -4 -12    7.22    1.95
 -16  -4 -12    2.61    1.29
 -16  -4 -11  652.85   43.49
 -16  -4 -11  650.89   42.88
 -16   4 -11  673.93   43.02
 -16  -4 -11  633.26   42.88
 -16  -4 -11  647.36   42.68
 -16  -4 -11  618.40   43.02
 -16   4 -11  707.22   44.16
 -16   4 -10   25.73    4.29
 -16  -4 -10   37.25    4.51
 -16   4 -10   32.70    4.04
 -16  -4 -10   42.53    4.23
 -16   4 -10   25.27    3.64
 -16  -4 -10   34.96    4.04
 -16  -4 -10   37.80    3.99
 -16  -4 -10   43.23    4.48
 -16  -4  -9   11.75    2.54
 -16   4  -9   16.49    3.44
 -16  -4  -9   22.50    3.45
 -16   4  -9   14.12    2.71
 -16  -4  -9   17.95    2.74
 -16   4  -9   10.65    2.36
 -16  -4  -9   15.41    2.63
 -16  -4  -9   14.91    2.56
  16  -4   8   98.22   16.40
  16   4   8   86.41   13.44
 -16  -4  -8  134.22   10.30
 -16   4  -8  108.85    9.60
 -16  -4  -8  129.16    9.66
 -16   4  -8  101.72    9.23
 -16  -4  -8  121.79    9.51
 -16  -4  -8  117.44    9.39
 -16  -4  -8  102.09   13.79
 -16   4  -8   90.17   13.23
 -16  -4  -8  123.50    9.83
 -16   4  -8  122.28   10.49
  16  -4   7   15.95    6.76
 -16  -4  -7   17.80    3.28
  16   4   7   12.59    5.16
 -16   4  -7   26.29    4.12
 -16  -4  -7   20.55    3.61
 -16   4  -7   38.81    4.27
 -16  -4  -7   24.58    3.41
 -16  -4  -7   29.67    3.56
 -16  -4  -7   21.94    5.95
 -16   4  -7   29.12    6.81
  16  -4   6    2.63    4.34
 -16  -4  -6    1.49    1.48
  16   4   6   -1.78    2.55
 -16   4  -6    4.98    1.99
 -16   4  -6    3.85    1.99
 -16  -4  -6    0.44    1.32
 -16  -4  -6    1.36    1.55
 -16  -4  -6    1.69    3.13
 -16   4  -6    1.72    2.47
 -16   4  -5  283.55   19.18
 -16  -4  -5  256.10   24.05
 -16   4  -5  258.94   24.31
 -16  -4  -5  265.19   18.85
  16  -4   5  279.23   28.14
  16   4   5  224.81   23.63
 -16  -4  -5  241.95   18.91
 -16   4  -5  281.03   19.87
  16  -4   4    4.97    4.60
 -16  -4  -4    8.30    2.31
  16   4   4   13.59    4.88
 -16   4  -4    5.93    2.67
 -16   4  -4    7.29    1.90
 -16   4  -4    4.97    1.79
 -16  -4  -4    8.18    2.04
 -16  -4  -4    6.57    4.09
 -16   4  -4   -1.68    3.42
 -16   4  -3  791.15   53.27
 -16  -4  -3  881.35   60.38
 -16   4  -3  796.14   59.73
 -16  -4  -3  810.28   53.51
 -16  -4  -3  832.46   53.93
  16  -4   3  796.40   63.34
  16   4   3  786.91   59.72
 -16  -4  -3  800.02   53.81
 -16   4  -3  876.20   54.62
  16  -4   2   16.19    5.77
  16   4   2    3.23    3.05
 -16  -4  -2    6.56    2.38
 -16   4  -2   18.42    3.36
 -16  -4  -2    7.29    2.19
 -16   4  -2   18.20    2.60
 -16  -4  -2    7.60    2.23
 -16  -4  -2    9.37    3.92
 -16   4  -2   22.66    5.55
 -16  -4  -2   10.53    2.43
 -16  -4  -1 1857.81  117.74
 -16   4  -1 1733.34  116.99
 -16  -4  -1 1910.04  123.90
 -16   4  -1 1757.55  123.47
 -16  -4  -1 1832.59  117.31
 -16  -4  -1 1935.65  118.02
  16  -4   1 1795.76  126.98
  16   4   1 1926.47  124.25
 -16  -4  -1 1843.94  117.77
 -16   4  -1 1873.79  118.29
  16  -4   0   71.21   12.25
  16   4   0   85.49   11.68
 -16  -4   0   93.38    7.90
 -16   4   0   72.11    7.04
 -16  -4   0  132.60   13.41
 -16  -4   0  107.31    7.80
 -16   4   0   73.49   11.17
 -16  -4   0  110.21    8.45
 -16  -4   0  106.27    8.27
 -16   4   0   78.20    8.01
 -16  -4   1  637.42   41.75
 -16  -4   1  671.36   47.58
 -16   4   1  637.12   47.82
 -16   4   1  632.88   41.00
 -16  -4   1  621.79   41.18
 -16  -4   1  689.22   42.15
  16  -4  -1  600.30   49.48
  16   4  -1  597.29   47.08
 -16  -4   1  595.81   41.68
 -16   4   1  600.68   42.11
 -16  -4   2    0.86    1.43
 -16   4   2    3.46    1.97
 -16  -4   2    4.53    1.65
 -16   4   2    3.76    1.11
 -16  -4   2    3.01    2.49
 -16   4   2    6.58    3.34
 -16  -4   2    4.43    1.69
  16  -4  -2    6.03    3.72
  16   4  -2   -1.51    2.17
 -16  -4   3 1015.23   65.35
 -16  -4   3 1131.41   72.18
 -16   4   3 1047.98   72.38
 -16   4   3  930.19   64.98
  16   4  -3 1036.90   68.12
 -16  -4   3 1063.66   65.59
  16  -4  -3 1009.12   73.32
  16   4  -3 1080.77   71.53
 -16  -4   3 1012.17   65.44
 -16   4   3  953.78   65.62
 -16  -4   4    3.90    1.56
 -16   4   4   -0.38    1.43
 -16  -4   4    6.50    1.53
 -16   4   4    2.98    1.39
 -16   4   4    1.77    3.27
  16   4  -4    3.37    1.85
 -16  -4   4    4.47    1.58
 -16   4   4    0.93    1.88
 -16   4   5  221.23   16.39
 -16  -4   5  239.67   16.17
 -16  -4   5  250.84   22.34
 -16   4   5  225.03   22.81
 -16   4   5  214.46   16.26
  16   4  -5  244.20   18.61
 -16  -4   5  228.17   16.43
 -16   4   6    4.48    1.42
 -16  -4   6    7.95    1.58
 -16   4   6    3.20    1.19
 -16  -4   6    8.28    4.55
 -16   4   6    1.98    4.01
 -16  -4   6    5.86    1.71
 -16   4   7  784.78   52.60
 -16  -4   7  878.92   52.33
 -16  -4   7  869.16   60.13
 -16   4   7  812.84   61.53
 -16   4   7  701.39   52.30
 -16  -4   7  796.29   52.20
  16  -4  -7  813.28   52.70
  16   4  -7  825.54   52.41
 -16   4   8    5.82    1.63
 -16  -4   8    7.03    1.59
 -16   4   8    6.63    4.48
 -16   4   8    2.98    1.52
 -16  -4   8    1.95    1.04
 -16  -4   8    7.12    3.61
  16  -4  -8    4.95    1.62
  16   4  -8    4.40    1.45
 -16   4   9   73.49    7.11
 -16  -4   9   88.89    6.90
 -16  -4   9   76.56   11.89
 -16   4   9   75.85   12.95
 -16   4   9   66.87    6.76
  16  -4  -9   82.87    6.99
  16   4  -9   74.52    6.66
 -16  -4  10   23.96    3.16
 -16   4  10   24.90    3.59
 -16   4  10   14.20    6.66
 -16  -4  10   27.84    6.85
  16  -4 -10   25.08    3.32
  16   4 -10   21.57    3.07
  16  -4 -11   55.69    5.57
  16   4 -11   68.62    5.85
 -16  -4  11   72.25    9.79
 -16   4  12   26.95    7.36
  16  -4 -12   36.77    4.20
  16   4 -12   41.50    4.36
 -16  -4  13   36.89    6.82
 -16   4  13   39.05    8.12
  16  -4 -13   27.41    3.43
  16   4 -13   28.80    3.55
 -16  -4  14   35.98    6.99
 -16   4  14   33.79    7.72
  16  -4 -14   19.77    3.20
  16   4 -14   34.49    3.81
 -16  -4  15  155.83   15.34
 -16   4  15  113.50   15.33
  16  -4 -15  117.10    9.59
  16   4 -15  121.14    9.68
 -16  -4  16   -3.13    4.10
 -16   4  16    2.08    3.84
  16  -4 -16    1.21    1.57
  16   4 -16    0.41    1.41
 -16  -4  17 1472.30   92.38
 -16   4  17 1286.91   93.88
  16   4 -17 1188.16   89.98
  16  -4 -17 1278.61   90.27
  16  -4 -17 1310.89   84.94
  16   4 -17 1352.74   85.11
  16   4 -18    4.53    3.06
  16  -4 -18    2.96    2.12
  16  -4 -18    0.41    1.33
  16   4 -18    3.00    1.67
 -16  -4  18    1.66    2.37
 -16   4  18   -2.19    4.44
 -16  -4  19  630.55   43.22
 -16   4  19  507.24   43.96
  16   4 -19  464.66   40.25
  16  -4 -19  491.81   40.36
  16  -4 -19  505.35   35.25
  16   4 -19  565.66   35.57
  16   4 -20   -0.44    1.45
  16   4 -20    4.71    3.18
  16  -4 -20   -1.53    3.79
  16  -4 -20    3.75    1.72
  16   4 -20    4.33    1.68
 -16  -4  20   -1.74    2.03
 -16   4  20   -2.28    4.21
  16   4 -21   88.49    7.70
  16  -4 -21   94.15    7.73
  16   4 -21   91.37    7.74
  16   4 -21   78.43   11.19
  16  -4 -21   68.73   10.59
 -16  -4  21  105.87   13.33
 -16   4  21   84.91   13.50
  16   4 -22   44.18    5.06
  16  -4 -22   38.30    4.62
  16   4 -22   61.95    5.34
  16   4 -22   46.65    8.09
  16  -4 -22   46.96    8.10
 -16  -4  22   70.64   10.36
 -16   4  22   75.36   12.17
  16   4 -23  539.42   36.96
  16  -4 -23  556.11   36.82
  16   4 -23  564.25   36.92
  16   4 -24   12.99    2.51
  16  -4 -24   21.07    2.79
  16   4 -24   15.25    2.41
  16   4 -25  136.15   11.29
  16  -4 -25  160.88   11.38
  16   4 -25  156.56   11.37
  16   4 -26    0.71    1.24
  16  -4 -26    0.32    1.36
  16   4 -26    1.59    1.23
  16   4 -27  107.33    8.77
  16  -4 -27  112.86    8.71
  16   4 -27  125.87    8.86
  16   4 -28    5.88    1.48
  16  -4 -28    3.30    1.28
  16   4 -28    5.40    1.35
  16  -4 -29  993.01   66.41
  16   4 -29 1089.87   66.44
  16  -4 -30    2.21    0.92
  16   4 -30    3.68    0.92
 -16  -6 -14    7.78    1.28
 -16  -6 -14    0.13    0.30
 -16  -6 -13  296.19   19.66
 -16  -6 -13  288.99   19.40
  16   6  13  296.64   19.59
 -16  -6 -12    5.64    1.38
 -16  -6 -12    6.00    1.38
  16   6  12    4.54    1.25
 -16  -6 -11   80.32    6.68
 -16   6 -11   70.02    6.79
 -16  -6 -11   86.50    6.69
 -16  -6 -11   90.36    6.65
  16   6  11   79.51    6.47
 -16  -6 -10   82.17    7.36
 -16  -6 -10   91.63    7.32
 -16  -6 -10   82.13    7.17
 -16  -6  -9  191.40   12.92
 -16   6  -9  178.64   13.26
 -16  -6  -9  174.88   12.49
 -16  -6  -9  199.90   12.75
 -16  -6  -8  673.11   43.43
 -16   6  -8  720.65   44.14
 -16  -6  -8  628.16   42.97
 -16  -6  -8  658.11   43.15
 -16   6  -8  625.65   42.98
 -16  -6  -7  627.49   37.07
 -16   6  -7  558.56   37.24
 -16  -6  -7  564.24   36.46
 -16  -6  -7  572.60   36.66
 -16   6  -7  460.55   36.11
 -16  -6  -6  574.47   37.53
 -16   6  -6  599.29   38.43
 -16   6  -6  532.65   37.44
 -16   6  -5   33.64    4.31
  16   6   5   47.37    7.45
 -16  -6  -5   41.71    4.05
 -16   6  -4  767.78   48.33
  16   6   4  763.03   53.32
 -16  -6  -4  739.64   47.48
 -16  -6  -4  709.27   47.90
 -16   6  -4  677.86   47.40
 -16   6  -3   38.94    4.66
  16   6   3   39.00    7.01
 -16  -6  -3   44.73    4.39
 -16  -6  -3   30.34    4.13
 -16   6  -3   35.70    4.11
 -16  -6  -2   61.25    5.87
 -16   6  -2   71.40    6.51
  16   6   2   66.37    9.23
 -16  -6  -2   65.03    5.74
 -16  -6  -2   64.49    6.28
  16   6   2   54.59    5.14
 -16  -6  -1   21.11    3.22
 -16  -6  -1   23.20    2.96
 -16  -6  -1   25.49    3.49
 -16  -6   0  233.58   15.53
  16   6   0  179.73   18.42
 -16  -6   0  206.37   14.76
 -16  -6   0  194.80   15.43
 -16  -6   1   -0.42    1.53
  16   6  -1    1.20    1.72
 -16  -6   1    3.29    1.55
 -16  -6   2   43.51    4.59
  16   6  -2   37.88    6.36
 -16  -6   2   37.09    4.47
 -16  -6   3  319.09   21.77
 -16   6   3  275.62   21.94
  16   6  -3  308.19   25.03
 -16  -6   3  340.03   22.09
 -16  -6   4  210.01   15.32
  16   6  -4  210.51   18.33
 -16  -6   4  203.70   15.29
 -16   6   4  215.48   15.90
 -16   6   5    8.92    2.25
 -16  -6   5   10.53    2.10
 -16   6   6  230.65   17.39
 -16  -6   6  233.24   16.62
 -16   6   7  209.94   16.89
 -16  -6   7  236.52   16.16
 -16   6   8   14.25    2.57
 -16   6   8   14.14    2.18
 -16   6   8   10.95    2.60
 -16  -6   8   10.86    2.02
 -16   6   9   78.57    6.63
 -16   6   9   75.51    7.73
 -16   6   9   83.23    7.12
 -16   6  10  100.66    8.13
 -16   6  10   94.12    9.15
 -16   6  10  109.14    8.56
 -16   6  11  462.60   31.23
 -16   6  11  446.01   32.52
 -16   6  11  489.57   31.56
 -16   6  12   39.68    4.24
 -16   6  13  750.50   49.25
 -16   6  14   97.40    8.36
  16   6 -14  101.76    8.29
 -16   6  15   67.05    6.40
  16   6 -15   68.98    6.26
  16   6 -16   97.02    8.18
  16   6 -17  130.21   10.30
  16   6 -18  232.93   17.52
  16   6 -18  257.59   17.14
  16   6 -19  119.75    9.30
  16   6 -19  107.10    8.93
  16   6 -19  107.22    8.40
  16   6 -20    8.60    2.09
  16   6 -20    6.50    1.48
  16   6 -21  403.01   27.23
  16   6 -21  393.05   26.28
  16   6 -22  161.66   12.26
  16   6 -23  671.97   44.31
  16   6 -24  531.08   35.33
  16   6 -25  888.00   57.56
  16   6 -26   79.35    6.55
  16   6 -27  108.20    8.18
  16   6 -28    9.57    1.56
 -16  -8 -13    2.75    0.73
 -16  -8 -12  403.84   25.08
 -16  -8 -12  372.52   24.96
 -16  -8 -11    4.90    1.08
 -16  -8 -11    7.38    1.24
 -16  -8 -10    2.73    0.94
 -16  -8 -10    1.46    0.96
 -16   8  -9    3.12    1.52
 -16  -8  -9    1.54    0.94
 -16  -8  -9    3.16    1.20
 -16   8  -8   44.92    4.77
 -16  -8  -8   40.23    3.82
 -16  -8  -8   41.22    3.99
 -16   8  -7    1.87    1.67
 -16  -8  -7    6.22    1.38
 -16   8  -6  202.70   14.75
 -16  -8  -6  190.90   13.51
 -16  -8  -6  186.90   13.82
 -16  -8  -5    5.68    1.55
 -16  -8  -5    7.11    1.52
 -16  -8  -5    4.71    1.55
 -16  -8  -4   53.88    4.82
 -16  -8  -4   52.23    5.16
 -16  -8  -3    1.75    1.19
 -16  -8  -3    2.40    1.41
 -16  -8  -2   18.89    2.54
 -16  -8  -2   19.44    3.00
 -16  -8  -1   45.10    4.37
 -16   8  -1   35.06    4.64
 -16  -8  -1   39.84    3.92
 -16  -8  -1   44.76    4.68
 -16  -8   0   63.70    5.80
 -16   8   0   68.19    6.54
 -16  -8   0   61.10    6.00
 -16  -8   1   11.76    2.17
 -16   8   1    9.51    2.50
 -16  -8   1    5.90    1.72
 -16  -8   2    6.34    1.81
 -16   8   2    8.33    2.16
 -16  -8   2    9.95    2.17
 -16  -8   3    2.26    1.29
 -16  -8   3   -0.40    1.25
 -16  -8   4    9.48    2.16
 -16   8   4   13.05    2.59
 -16  -8   4   17.53    2.62
 -16  -8   5   23.96    3.15
 -16   8   5   31.67    3.74
 -16   8   5   29.60    4.09
 -16  -8   6  195.46   14.87
 -16   8   6  230.25   15.53
 -16  -8   6  198.05   14.75
 -16   8   6  210.11   16.13
 -16   8   7    3.68    1.79
 -16   8   7    4.68    1.86
 -16  -8   7    7.56    1.69
 -16   8   8    1.89    1.73
 -16   8   8    2.47    1.57
 -16   8   9    2.07    1.48
 -16   8   9   -0.64    2.18
 -16   8   9   -0.40    1.19
 -16   8  10   17.20    2.99
 -16   8  10   15.82    3.36
 -16   8  10   19.16    2.80
 -16   8  11   -1.98    1.42
 -16   8  11    2.00    2.07
 -16   8  11    1.83    1.21
 -16   8  12   62.12    6.84
  16   8 -12   76.11    5.88
 -16   8  12   63.46    6.10
 -16   8  13    2.29    1.47
  16   8 -13    2.61    1.39
 -16   8  13    0.68    1.87
 -16   8  14  592.71   41.03
  16   8 -14  597.03   39.41
 -16   8  15    0.67    1.85
  16   8 -15    2.62    1.61
 -16   8  16 1032.35   69.87
  16   8 -16 1071.00   68.34
  16   8 -17   41.57    4.41
  16   8 -18  934.95   64.24
  16  -8 -18 1092.78   65.39
  16   8 -19   11.39    2.12
  16  -8 -19    7.37    1.95
  16   8 -20  176.32   12.90
  16   8 -21   11.70    2.11
  16   8 -22   15.72    2.37
  16   8 -23    9.69    1.76
  16   8 -23   12.05    1.78
  16   8 -24   27.14    2.91
  16   8 -25    6.92    1.36
  16   8 -26    3.01    0.92
 -16 -10  -9   31.40    2.58
 -16 -10  -7   27.33    2.60
 -16 -10  -6   21.63    2.34
 -16 -10  -5    7.48    1.42
 -16  10  -4  146.56   10.72
 -16 -10  -4  130.71    9.81
 -16  10  -3   22.63    3.20
 -16 -10  -3   20.21    2.62
 -16  10  -2   35.91    4.24
 -16 -10  -2   34.74    3.62
 -16  10  -1   81.34    7.45
 -16 -10  -1   88.59    6.93
 -16  10   0   34.81    3.88
 -16 -10   0   21.83    2.94
 -16  10   1   71.30    7.00
 -16 -10   1   88.50    6.79
 -16  10   2   26.83    3.47
 -16 -10   2   18.16    2.58
 -16 -10   3   12.57    1.97
 -16  10   3   16.36    2.64
 -16 -10   3   16.20    2.28
 -16 -10   4   65.35    5.57
 -16  10   4   69.22    6.35
 -16 -10   4   70.32    5.76
 -16 -10   5    5.63    1.33
 -16  10   5    2.80    1.50
 -16 -10   5    2.40    1.14
 -16 -10   6   95.29    7.38
 -16  10   6   80.97    7.66
 -16 -10   6  104.31    7.34
 -16 -10   7    2.53    1.06
 -16  10   7    3.72    1.32
 -16 -10   8   34.27    3.56
 -16  10   8   42.58    4.84
 -16  10   8   31.78    3.76
 -16 -10   9   39.22    3.72
 -16  10   9   42.58    4.74
 -16  10   9   27.88    3.52
 -16 -10  10  163.16   12.01
 -16  10  10  169.74   13.16
  16  10 -10  170.01   12.09
 -16  10  11  145.89   11.55
  16  10 -11  140.28   10.46
 -16  10  12   30.55    4.15
  16  10 -12   38.77    3.60
  16  10 -12   31.74    3.48
 -16  10  13  139.62   11.10
  16  10 -13  135.88    9.92
  16  10 -13  131.62    9.95
 -16  10  14  361.19   25.81
  16  10 -14  391.62   24.85
  16  10 -14  358.32   24.78
 -16  10  15  111.41    8.99
  16  10 -15  111.63    7.95
  16  10 -15   91.01    7.73
  16 -10 -15  104.38    8.69
 -16  10  16   49.91    5.23
  16  10 -16   44.83    4.21
  16  10 -16   42.48    4.17
 -16  10  17   34.82    4.06
  16  10 -17   27.75    3.07
  16  10 -17   30.15    3.17
 -16  10  18  336.48    9.96
  16  10 -18  288.93    7.09
 -16  10  19   14.17    2.19
  16  10 -19   10.84    1.49
  16  10 -20   74.43    5.69
  16  10 -21   69.19    5.20
  16  10 -21   67.04    5.07
  16  10 -22   70.88    5.25
  16  12  -1   13.05    1.53
  16  12  -2   11.26    1.44
  16  12  -3  122.67    8.55
  16  12  -4    4.53    1.00
  16  12  -5   30.39    2.80
  16  12  -6   57.80    4.54
  16  12  -7  107.83    7.68
  16  12  -8    0.17    0.74
  16  12  -9   49.85    4.00
  16  12 -10    8.77    1.37
  16 -12 -10   11.82    1.94
  16  12 -11  226.50   14.92
  16 -12 -11  220.38   15.49
  16  12 -12   47.13    3.54
  16 -12 -12   37.07    3.82
  16  12 -13   38.10    3.32
  16 -12 -13   50.84    3.96
  16 -12 -14    1.67    0.89
 -17  -1 -18  201.01   13.49
 -17  -1 -17    1.77    1.04
 -17  -1 -16    5.60    1.41
 -17  -1 -15  271.56   18.68
 -17   1 -15  303.88   18.91
 -17  -1 -15  241.21   18.60
 -17  -1 -14  563.54   34.41
 -17  -1 -14  469.23   34.19
 -17  -1 -13   60.84    5.78
 -17  -1 -13   56.70    5.77
 -17  -1 -12  361.21   25.91
 -17  -1 -12  426.32   26.05
 -17  -1 -12  360.91   24.63
 -17  -1 -12  346.01   25.68
 -17  -1 -11   80.16    7.68
 -17  -1 -11   89.49    7.67
 -17  -1 -11   80.30    6.62
 -17  -1 -11   72.30    7.38
 -17  -1 -10   10.78    2.47
 -17  -1 -10    3.38    2.07
 -17  -1 -10    4.68    2.05
 -17  -1 -10    6.48    1.73
 -17  -1  -9  184.31   14.83
 -17   1  -9  194.68   14.84
 -17  -1  -9  187.23   21.00
 -17   1  -9  212.95   22.12
 -17   1  -9  203.86   13.83
 -17  -1  -9  184.74   13.83
 -17  -1  -9  175.37   14.62
 -17  -1  -8 1132.18   72.87
 -17   1  -8 1079.09   72.66
 -17  -1  -8 1166.96   81.28
 -17   1  -8 1153.48   81.48
 -17  -1  -8 1158.31   72.28
 -17   1  -8 1064.46   71.56
 -17  -1  -8 1118.15   71.84
 -17  -1  -8 1112.26   72.81
 -17  -1  -7   81.73    8.27
 -17   1  -7  117.26    8.97
 -17  -1  -7   95.97    8.09
 -17   1  -7  107.20    7.87
 -17  -1  -7   90.72    7.78
 -17  -1  -7   63.58   11.97
 -17  -1  -7   63.82    7.85
 -17  -1  -6  808.45   55.98
 -17   1  -6  825.92   55.91
 -17  -1  -6  808.98   63.57
 -17  -1  -6  888.89   55.68
 -17   1  -6  865.90   55.14
 -17  -1  -6  889.61   55.41
  17  -1   6  811.17   64.99
 -17  -1  -6  792.68   55.95
 -17  -1  -5    5.44    1.97
  17  -1   5   -2.35    5.14
 -17   1  -5    6.06    1.96
 -17  -1  -5    0.88    1.37
 -17   1  -5    3.36    1.45
 -17  -1  -5    2.47    1.53
 -17  -1  -5    2.05    4.48
  17  -1   4   29.70    7.66
 -17  -1  -4   15.92    3.10
 -17   1  -4   15.53    2.97
 -17  -1  -4   24.47    3.26
 -17   1  -4   26.03    3.17
 -17  -1  -4   14.00    5.38
 -17  -1  -4   18.97    2.90
  17  -1   3    2.22    3.68
 -17  -1  -3    6.25    2.03
 -17   1  -3    1.87    1.41
 -17  -1  -3    4.14    1.54
 -17  -1  -3    1.95    2.80
 -17   1  -3    1.84    1.20
 -17  -1  -3    6.16    1.81
 -17   1  -2  526.04   37.18
 -17  -1  -2  644.91   45.86
 -17  -1  -2  596.59   37.17
 -17   1  -2  532.90   36.74
  17  -1   2  507.20   44.67
 -17  -1  -2  565.84   37.66
  17  -1   1  116.81   14.94
 -17  -1  -1   84.95    7.33
 -17  -1  -1   89.03   12.51
 -17  -1  -1  101.02    7.69
 -17  -1  -1   68.50    7.51
 -17  -1   0  815.87   62.95
 -17  -1   0  863.93   55.38
 -17  -1   0  876.05   55.65
  17  -1   0  821.52   63.94
 -17  -1   0  821.54   56.08
 -17  -1   1  118.42    9.78
 -17  -1   1  114.58   14.98
 -17  -1   1  125.11    9.52
 -17   1   1  115.66    9.42
 -17  -1   1  128.64    9.82
  17  -1  -1  131.92   16.43
 -17  -1   1  135.69   10.48
  17  -1  -2   69.55   11.31
 -17  -1   2   63.36    5.85
 -17   1   2   63.19    5.60
 -17  -1   2   66.45    5.85
 -17  -1   2   66.35    6.43
  17  -1  -3   17.06    5.71
 -17  -1   3   20.10    3.37
 -17  -1   3   22.04    2.94
 -17  -1   3   21.79    3.10
 -17  -1   3   15.83    5.57
 -17   1   3   17.65    2.59
 -17  -1   3   19.63    2.76
  17  -1  -4   40.91    8.30
 -17  -1   4   22.77    3.55
 -17  -1   4   26.27    3.29
 -17   1   4   18.23    2.79
 -17  -1   4   28.51    3.44
 -17  -1   4   40.43    8.49
 -17  -1   4   31.03    3.34
 -17   1   4   20.11    2.80
 -17  -1   5  180.48   13.72
 -17   1   5  180.19   13.42
 -17  -1   5  189.06   14.09
 -17  -1   5  194.68   20.99
 -17   1   5  192.98   13.58
 -17  -1   5  201.81   13.78
  17  -1  -5  188.64   20.82
 -17  -1   5  196.51   14.68
 -17  -1   6   23.66    2.73
 -17   1   6   12.13    2.00
 -17  -1   6   22.97    2.93
 -17  -1   6   21.43    6.92
 -17   1   6   12.84    2.16
 -17  -1   6   17.89    2.40
  17  -1  -6    4.36    4.51
 -17  -1   6    7.10    2.28
 -17  -1   7    2.77    1.16
 -17   1   7    2.24    1.03
 -17  -1   7    5.72    1.79
 -17  -1   7    4.36    4.77
 -17   1   7    2.40    1.20
 -17  -1   7    3.08    1.15
 -17   1   8   80.08    6.58
 -17  -1   8   86.12    7.43
 -17  -1   8   90.21   13.87
 -17   1   8   90.55    6.81
 -17  -1   8   75.58    6.60
 -17   1   9   17.38    2.28
 -17  -1   9   19.27    2.48
 -17  -1   9   17.03    5.37
  17  -1  -9   10.82    2.73
 -17   1  10  227.39   16.14
 -17  -1  10  232.75   22.44
 -17  -1  10  231.93   16.26
  17  -1 -10  263.16   17.88
 -17   1  11   50.23    4.60
 -17  -1  11   56.92    9.58
  17  -1 -11   62.41    6.14
 -17   1  12  106.34    8.23
 -17  -1  12  108.24   13.50
  17  -1 -12  119.64    9.74
 -17  -1  13  169.92   17.79
  17  -1 -13  164.48   13.10
 -17  -1  14  190.14   18.47
  17  -1 -14  153.18   12.67
  17  -1 -15    4.72    1.86
 -17  -1  15    5.12    3.47
 -17  -1  16  120.38   14.44
  17  -1 -16  114.05    9.83
  17  -1 -17  251.61   18.70
 -17  -1  17  259.48   24.37
  17  -1 -18  167.77   12.99
 -17  -1  18  143.21   17.68
  17  -1 -19    1.91    3.18
  17  -1 -19    8.20    2.33
 -17  -1  20   38.54    8.37
  17  -1 -20   44.59    5.12
  17  -1 -20   33.10    7.81
  17   1 -21  131.16   17.54
  17  -1 -21  167.69   12.77
  17  -1 -21  126.85   17.04
 -17  -1  21  174.19   18.94
 -17  -1  22   72.88   12.36
  17  -1 -22   99.49    8.67
  17   1 -22  102.19   14.08
  17  -1 -22   83.84   12.92
 -17  -1  23    7.84    4.29
 -17   1  23   -2.16    4.00
  17   1 -23   -2.00    5.49
  17  -1 -23    1.62    1.41
  17  -1 -24  370.89   26.10
  17  -1 -25    4.96    2.19
  17  -1 -26   97.98    8.48
  17  -1 -27   18.14    2.82
  17  -1 -28    5.15    1.60
  17  -1 -29   38.66    4.22
  17  -1 -30  238.84   16.70
  17  -1 -31  297.29   20.15
  17  -1 -32   54.62    4.72
 -17   3 -17   21.09    2.20
 -17  -3 -16   13.63    1.91
 -17   3 -16   25.47    2.55
 -17  -3 -15  223.08   15.92
 -17   3 -15  249.07   16.47
 -17  -3 -14  114.69    4.81
 -17   3 -14   69.08    3.98
 -17  -3 -14   98.30    4.67
 -17   3 -14   71.55    4.67
 -17  -3 -13 1100.28   70.40
 -17   3 -13 1208.97   70.69
 -17  -3 -13 1044.20   69.79
 -17  -3 -13  998.00   70.40
 -17   3 -13 1206.47   71.40
 -17  -3 -12   29.25    3.70
 -17   3 -12   19.83    3.68
 -17  -3 -12   33.18    4.03
 -17  -3 -12   36.05    3.77
 -17   3 -12   22.49    3.27
 -17  -3 -12   31.40    3.48
 -17  -3 -12   28.76    3.11
 -17  -3 -11   92.58    8.22
 -17  -3 -11   91.54    7.80
 -17   3 -11  109.77    8.24
 -17  -3 -11   93.21    7.65
 -17  -3 -11   87.37    7.33
 -17  -3 -11   79.97    7.69
 -17   3 -11  101.11    8.75
 -17  -3 -10  142.77   11.77
 -17  -3 -10  178.05   11.71
 -17   3 -10  130.45   11.21
 -17  -3 -10  140.64   11.11
 -17  -3 -10  151.89   10.95
 -17  -3 -10  133.64   11.36
 -17   3 -10  137.68   12.01
 -17  -3  -9  184.83   15.08
 -17  -3  -9  199.18   14.90
 -17   3  -9  232.97   15.34
 -17  -3  -9  183.63   14.53
 -17  -3  -9  203.92   14.52
 -17  -3  -9  184.06   14.84
 -17   3  -9  214.80   15.94
  17   3   8  110.53   14.43
 -17  -3  -8  126.66    9.84
 -17   3  -8   94.61    8.66
 -17  -3  -8  118.40    9.08
 -17  -3  -8  116.98    8.89
 -17  -3  -8  115.68   14.48
 -17   3  -8   94.93   13.95
 -17  -3  -8  118.14    9.41
 -17   3  -8   87.09    9.47
 -17  -3  -7  727.23   48.50
 -17  -3  -7  680.65   54.48
 -17   3  -7  670.44   54.75
 -17  -3  -7  689.19   47.77
 -17   3  -7  822.48   48.13
 -17  -3  -7  716.95   47.72
  17  -3   7  755.64   59.76
  17   3   7  621.04   54.08
 -17  -3  -7  669.99   48.06
 -17   3  -7  806.89   49.40
 -17  -3  -6  459.64   28.62
 -17   3  -6  326.23   27.33
 -17   3  -6  400.87   27.56
 -17  -3  -6  443.60   35.28
 -17   3  -6  340.61   33.47
 -17  -3  -6  447.01   27.93
 -17  -3  -6  443.83   27.84
  17  -3   6  346.23   36.38
  17   3   6  335.48   33.17
 -17  -3  -6  430.29   28.22
 -17   3  -6  376.60   28.51
 -17   3  -5  427.71   31.57
 -17   3  -5  502.04   31.80
 -17  -3  -5  516.81   39.27
 -17   3  -5  514.06   39.70
 -17  -3  -5  474.13   31.70
 -17  -3  -5  472.87   31.75
  17  -3   5  465.58   42.28
  17   3   5  394.96   37.22
 -17  -3  -5  423.09   31.81
 -17   3  -5  516.52   33.10
  17  -3   4   15.59    6.51
  17   3   4    5.47    3.50
 -17  -3  -4    9.77    2.51
 -17   3  -4   15.27    3.41
 -17   3  -4   18.91    2.91
 -17   3  -4   23.81    3.11
 -17  -3  -4   15.27    2.64
 -17  -3  -4   10.76    4.78
 -17   3  -4   22.79    6.15
  17  -3   3    7.59    5.13
 -17  -3  -3    9.13    2.38
  17   3   3   -1.78    3.30
 -17   3  -3    3.72    2.24
 -17   3  -3    6.42    1.92
 -17  -3  -3    8.05    2.14
 -17  -3  -3   -1.76    2.07
 -17   3  -3    5.62    3.80
  17  -3   2    4.93    4.11
  17   3   2   10.46    4.11
 -17  -3  -2    5.49    2.05
 -17   3  -2    7.27    2.51
 -17   3  -2    9.37    2.04
 -17  -3  -2   11.40    2.25
 -17  -3  -2    6.89    3.53
 -17   3  -2   11.09    4.62
 -17  -3  -2   10.20    2.36
  17  -3   1   31.36    7.94
  17   3   1   30.83    6.74
 -17  -3  -1   31.89    4.12
 -17   3  -1   31.54    4.45
 -17  -3  -1   27.72    3.76
 -17   3  -1   28.61    3.55
 -17  -3  -1   27.83    3.57
 -17  -3  -1   32.30    7.53
 -17   3  -1   49.71    8.93
 -17  -3  -1   24.92    3.60
  17  -3   0   85.07   13.81
 -17  -3   0   99.84    8.21
 -17   3   0   93.39    7.68
 -17  -3   0  106.07   13.04
 -17  -3   0   91.13    7.71
 -17   3   0   86.62   12.73
 -17  -3   0   87.28    8.00
  17   3   0   98.26   12.72
 -17  -3   0   85.49    8.16
 -17   3   0  110.15    9.04
 -17  -3   1  206.96   14.94
 -17  -3   1  173.83   19.37
 -17   3   1  200.19   20.79
 -17   3   1  187.69   14.24
 -17  -3   1  202.27   14.38
 -17  -3   1  215.14   15.07
  17  -3  -1  208.73   22.59
  17   3  -1  206.55   20.29
 -17  -3   1  194.11   15.03
 -17   3   1  205.35   15.63
  17  -3  -2    6.87    5.44
  17   3  -2   15.10    4.90
 -17  -3   2   11.81    2.57
 -17   3   2   22.57    3.65
 -17  -3   2   13.31    2.62
 -17   3   2   15.67    2.30
 -17  -3   2    8.48    4.08
 -17   3   2   22.89    6.38
 -17  -3   2   18.77    2.45
 -17  -3   2   17.26    2.77
 -17  -3   3  737.55   54.12
 -17   3   3  755.94   55.48
 -17   3   3  708.86   46.49
 -17  -3   3  756.98   47.34
  17  -3  -3  663.06   55.46
  17   3  -3  690.45   53.32
 -17  -3   3  694.67   47.42
 -17   3   3  711.69   47.96
 -17   3   4  110.02   10.32
 -17  -3   4  165.20   10.71
 -17  -3   4  193.78   17.79
 -17   3   4  113.30    9.65
 -17   3   4  110.55   15.93
 -17  -3   4  169.82   10.96
  17   3  -4  187.21   17.26
 -17  -3   4  157.30   11.14
 -17   3   4  111.11   10.76
  17  -3  -4  112.36   16.11
 -17   3   5  888.32   57.52
 -17  -3   5  894.82   57.11
 -17  -3   5  927.52   65.09
 -17   3   5  925.88   66.69
 -17   3   5  813.11   56.57
 -17  -3   5  952.23   57.32
 -17   3   5  844.97   57.84
 -17   3   6   14.20    2.39
 -17  -3   6    5.98    1.68
 -17   3   6    8.10    1.56
 -17  -3   6    3.76    3.84
 -17   3   6   11.29    5.30
 -17  -3   6    6.90    1.89
 -17   3   7 1121.99   69.61
 -17  -3   7 1138.07   69.15
 -17  -3   7 1103.43   77.42
 -17   3   7 1057.65   79.04
 -17   3   7  962.47   68.46
 -17  -3   7 1089.78   68.81
 -17   3   8  102.58    9.08
 -17  -3   8  131.99    9.13
 -17  -3   8  118.42   15.08
 -17   3   8   86.21    8.19
 -17   3   8   99.03   14.89
 -17  -3   8  114.78    8.58
  17  -3  -8  104.49    9.34
  17   3  -8  122.73    9.27
 -17  -3   9   16.98    2.63
 -17   3   9   15.20    2.82
 -17   3   9    7.61    5.18
 -17  -3   9   10.19    4.81
 -17   3   9    2.49    1.47
 -17  -3   9   16.57    2.17
  17  -3  -9   17.34    3.00
  17   3  -9   19.68    2.82
 -17  -3  10  218.05   15.20
 -17   3  10  206.07   15.65
 -17   3  10  167.24   22.36
 -17  -3  10  180.74   21.63
 -17   3  10  184.23   14.63
  17  -3 -10  206.48   15.41
  17   3 -10  233.12   15.42
 -17  -3  11    1.60    3.51
 -17   3  11    2.04    4.14
  17  -3 -11    3.34    1.70
  17   3 -11    6.94    1.91
 -17  -3  12   75.57   10.81
 -17   3  12   76.12   11.88
  17  -3 -12   66.43    6.60
  17   3 -12   72.54    6.62
 -17  -3  13  306.05   27.02
 -17   3  13  332.06   29.54
  17  -3 -13  288.84   21.55
  17   3 -13  316.87   21.60
 -17  -3  14    6.55    3.84
 -17   3  14    2.10    3.02
  17  -3 -14    3.73    1.60
  17   3 -14    2.69    1.54
 -17  -3  15  136.32   14.80
 -17   3  15   96.15   14.36
  17  -3 -15  106.50    9.20
  17   3 -15  109.76    9.20
 -17  -3  16   20.37    6.53
 -17   3  16   17.48    6.51
  17  -3 -16   32.50    3.95
  17   3 -16   30.66    3.93
 -17  -3  17   74.71   11.38
 -17   3  17   62.69   11.48
  17  -3 -17   76.88    7.09
  17   3 -17   76.56    7.03
  17  -3 -18   65.84    6.23
  17   3 -18   54.13    5.85
  17   3 -18   58.27    9.57
  17  -3 -18   50.43    9.13
 -17  -3  18   62.29   10.23
 -17   3  18   73.44   12.27
  17  -3 -19  100.88    8.37
  17   3 -19   94.08    8.24
  17   3 -19   81.80   12.13
  17  -3 -19   65.01   10.95
 -17  -3  19  110.93   13.70
 -17   3  19  103.19   14.90
  17   3 -20   43.97    4.54
  17  -3 -20   33.18    4.31
  17   3 -20   50.25    4.95
  17   3 -20   43.31    8.32
  17  -3 -20   24.25    6.36
 -17  -3  20   31.52    8.02
 -17   3  20   21.50    7.76
  17   3 -21   14.22    2.65
  17   3 -21   10.51    4.87
  17  -3 -21    6.99    4.41
  17  -3 -21   10.98    2.48
  17   3 -21   17.44    2.78
 -17  -3  21   16.84    5.85
 -17   3  21   14.48    7.77
  17   3 -22   93.20    7.98
  17  -3 -22  112.20    8.55
  17   3 -22   93.39    8.29
  17   3 -22   81.88   12.22
  17  -3 -22   90.31   12.77
 -17  -3  22   86.25   13.21
 -17   3  22   72.10   13.46
  17   3 -23   93.01    8.17
  17  -3 -23  111.21    8.75
  17   3 -23   97.52    8.52
  17   3 -24   27.50    3.38
  17  -3 -24   29.33    3.63
  17   3 -24   23.05    3.40
  17   3 -25  178.82   13.36
  17  -3 -25  190.31   13.71
  17   3 -25  182.32   13.65
  17   3 -26  300.26   21.47
  17  -3 -26  340.01   21.96
  17   3 -26  311.99   21.81
  17  -3 -27   20.42    3.02
  17   3 -27   23.82    3.08
  17  -3 -28    7.19    1.59
  17   3 -28    4.84    1.35
  17  -3 -29  435.73   29.25
  17   3 -29  449.49   29.21
  17   3 -30   19.92    2.13
  17  -3 -30   11.28    1.81
  17  -3 -31  250.59   16.64
  17   3 -31  245.06   16.48
 -17  -5 -14   -0.11    0.16
 -17   5 -14   -0.17    0.20
 -17  -5 -13 1610.10   16.14
 -17  -5 -13 1566.70   13.91
 -17  -5 -12  120.07    9.09
 -17  -5 -12  113.16    8.77
 -17  -5 -12  123.06    8.69
 -17  -5 -12   96.34    8.45
 -17  -5 -11  676.20   42.93
 -17   5 -11  621.74   42.22
 -17  -5 -11  642.60   42.53
 -17  -5 -11  679.51   42.45
 -17  -5 -11  634.54   42.36
 -17   5 -11  678.26   42.96
 -17   5 -10   28.01    3.74
 -17  -5 -10   38.45    4.08
 -17   5 -10   28.89    3.60
 -17  -5 -10   33.98    3.44
 -17   5 -10   23.70    3.12
 -17  -5 -10   35.26    3.61
 -17  -5 -10   36.99    3.60
 -17  -5 -10   32.44    3.53
 -17  -5  -9    4.93    1.69
 -17   5  -9    5.88    2.03
 -17  -5  -9    3.90    1.54
 -17   5  -9    3.07    1.68
 -17  -5  -9    5.14    1.56
 -17   5  -9    3.79    1.43
 -17  -5  -9    3.45    1.33
 -17  -5  -9    4.46    1.47
 -17  -5  -8    7.69    2.14
 -17   5  -8   15.01    2.97
 -17  -5  -8   16.02    2.74
 -17   5  -8   21.84    3.33
 -17  -5  -8   12.16    2.20
 -17   5  -8   15.35    2.42
 -17  -5  -8   11.72    2.32
 -17  -5  -8    9.75    2.14
 -17  -5  -7  335.44   22.91
 -17   5  -7  342.30   23.05
 -17  -5  -7  342.62   22.23
 -17   5  -7  309.34   22.11
 -17  -5  -7  318.07   22.29
 -17  -5  -7  313.81   22.35
 -17  -5  -7  315.16   22.39
 -17   5  -7  311.52   22.86
 -17  -5  -6  434.09   29.93
 -17   5  -6  467.66   30.17
 -17  -5  -6  445.28   29.24
 -17   5  -6  444.82   29.31
 -17  -5  -6  423.19   29.34
 -17  -5  -6  410.07   29.45
 -17  -5  -6  406.11   29.42
 -17   5  -6  455.95   30.17
 -17  -5  -5    9.31    2.32
 -17   5  -5    8.95    2.66
 -17   5  -5   17.09    3.04
 -17  -5  -5   13.10    2.34
 -17   5  -5   13.35    4.63
  17   5   4    3.21    2.37
 -17  -5  -4    9.44    2.21
 -17   5  -4   11.06    2.67
 -17   5  -4   13.89    2.78
 -17  -5  -4    9.91    2.17
 -17   5  -4    9.02    3.77
 -17   5  -3  578.74   38.34
 -17   5  -3  466.53   42.25
 -17  -5  -3  603.71   37.94
 -17  -5  -3  622.84   38.48
  17   5   3  501.74   43.12
 -17  -5  -3  564.94   38.13
 -17   5  -3  536.17   38.33
  17   5   2   30.13    6.93
 -17  -5  -2   26.62    4.18
 -17   5  -2   56.12    5.30
 -17  -5  -2   39.65    4.38
 -17  -5  -2   43.33    4.94
 -17  -5  -2   52.11    8.27
 -17   5  -2   66.01    9.15
 -17   5  -2   54.86    5.49
 -17  -5  -1 1323.15   82.48
 -17  -5  -1 1450.44   88.60
 -17   5  -1 1102.49   86.83
  17   5   1 1262.59   86.57
 -17  -5  -1 1276.96   81.80
 -17  -5  -1 1336.88   82.68
  17  -5   1 1076.19   89.48
  17   5   1 1220.15   87.89
 -17  -5  -1 1287.63   82.31
 -17   5  -1 1230.95   82.46
 -17  -5   0  182.64   14.01
 -17  -5   0  177.94   18.09
 -17   5   0  231.28   19.72
  17   5   0  154.25   16.56
 -17  -5   0  176.39   13.42
 -17  -5   0  188.64   14.31
  17  -5   0  175.45   20.17
  17   5   0  182.93   18.70
 -17  -5   0  200.40   14.15
 -17   5   0  200.45   14.40
 -17  -5   1  535.62   34.87
 -17  -5   1  552.31   40.06
 -17   5   1  444.43   39.08
  17   5  -1  528.14   38.33
 -17  -5   1  531.70   34.15
 -17  -5   1  532.19   35.04
  17   5  -1  474.42   39.59
 -17  -5   1  554.96   34.86
 -17   5   1  450.61   34.63
 -17  -5   2   55.88    6.02
  17   5  -2   61.34    8.12
 -17  -5   2   62.96    9.23
 -17   5   2   67.46    9.84
 -17  -5   2   84.08    6.79
 -17  -5   3   32.03    3.91
  17   5  -3   22.89    4.81
 -17  -5   3   35.15    6.58
 -17   5   3   36.64    7.10
 -17  -5   3   38.02    4.19
 -17  -5   4   25.06    3.41
 -17   5   4   28.64    3.64
 -17  -5   4   25.75    5.87
 -17   5   4   15.67    5.24
 -17  -5   4   21.94    3.22
 -17  -5   5  131.82   10.50
 -17  -5   5  118.10   14.38
 -17   5   5  137.44   15.50
 -17   5   5  122.96   10.54
 -17  -5   5  147.88   10.69
  17  -5  -5  129.87   10.57
  17   5  -5  139.54   10.35
 -17   5   6   91.12    7.67
 -17   5   6   77.41    7.81
 -17  -5   6   94.17   12.09
 -17   5   6   66.69   11.18
 -17  -5   6  100.31    7.88
  17  -5  -6   94.85    8.03
  17   5  -6  102.69    7.79
 -17   5   7   19.00    2.91
 -17  -5   7   19.71    2.66
 -17   5   7   17.19    3.13
 -17  -5   7    9.36    4.44
 -17   5   7   14.57    5.13
 -17  -5   7   20.66    2.78
  17  -5  -7   22.74    3.19
  17   5  -7   18.41    2.75
 -17   5   8    0.40    1.63
 -17  -5   8    2.91    1.42
 -17   5   8    1.49    1.64
 -17  -5   8   -1.62    5.35
 -17   5   8   -1.93    5.05
 -17  -5   8    1.39    1.15
  17  -5  -8   -2.78    2.12
  17   5  -8   -0.35    1.57
 -17  -5   9   35.45    3.67
 -17   5   9   32.24    3.90
 -17   5   9   23.55    3.92
 -17  -5   9   47.21    8.93
 -17   5   9   34.85    8.54
  17   5  -9   36.42    3.84
  17  -5  -9   26.88    3.74
 -17   5  10  241.50   17.26
 -17  -5  10  255.21   16.85
 -17  -5  10  231.83   23.38
 -17   5  10  184.83   23.21
 -17   5  10  218.01   17.47
  17  -5 -10  237.57   16.96
  17   5 -10  243.42   16.87
 -17   5  11    9.77    2.32
 -17  -5  11   19.31    2.55
 -17  -5  11   21.95    6.45
 -17   5  11    2.30    4.31
 -17   5  11   11.93    2.95
  17  -5 -11    9.83    2.07
  17   5 -11    8.88    2.00
 -17   5  12   27.14    3.89
 -17  -5  12   26.78    3.32
 -17  -5  12   17.05    5.61
 -17   5  12   19.29    6.46
  17  -5 -12   19.99    3.04
  17   5 -12   21.94    3.02
 -17  -5  13  112.86    8.31
 -17   5  13   91.65    8.51
 -17  -5  13   85.68   12.88
  17  -5 -13   88.66    7.85
  17   5 -13  105.88    8.05
 -17   5  14  164.34   22.73
 -17  -5  14  192.64   22.15
  17   5 -14  215.25   15.91
  17  -5 -14  233.52   16.14
  17   5 -14  247.81   16.19
 -17  -5  14  228.27   21.63
 -17   5  14  195.27   22.54
 -17  -5  15  310.80   28.24
 -17   5  15  317.86   30.43
  17  -5 -15  312.52   22.63
  17   5 -15  356.35   22.83
  17  -5 -16   72.35    6.25
  17   5 -16   62.38    5.98
  17   5 -16   61.25    9.04
  17  -5 -16   77.76   10.07
 -17   5  16   69.94   11.73
 -17   5  17  202.36   22.94
  17   5 -17  214.91   19.75
  17  -5 -17  190.49   15.08
  17   5 -17  236.33   15.46
 -17   5  18   41.37    9.15
  17  -5 -18   57.80    5.09
  17   5 -18   46.46    4.71
  17   5 -18   36.30    6.98
  17  -5 -19   58.87    5.60
  17   5 -19   75.51    5.92
 -17   5  19   63.54   11.21
  17   5 -20    8.41    2.22
  17  -5 -20   14.39    2.35
  17   5 -20   11.14    2.15
  17   5 -21   48.71    5.34
  17  -5 -21   57.54    5.19
  17   5 -21   59.31    5.21
  17   5 -22   23.84    3.39
  17   5 -22   29.56    3.21
  17  -5 -22   23.62    2.97
  17   5 -23    1.23    1.41
  17  -5 -23    4.01    1.38
  17   5 -23    2.12    1.18
  17   5 -24   19.70    2.92
  17  -5 -24   24.59    2.77
  17   5 -24   21.14    2.63
  17   5 -25   18.28    2.82
  17  -5 -25   25.52    2.73
  17   5 -25   22.00    2.56
  17   5 -26   31.46    3.69
  17  -5 -26   33.84    3.36
  17   5 -26   43.07    3.49
  17   5 -27   55.53    3.49
  17   5 -27   -0.18    0.45
  17   5 -28   24.11    2.14
  17   5 -28   -0.14    0.20
 -17  -7 -12   16.77    1.81
 -17  -7 -12   15.75    1.71
 -17  -7 -11    4.69    1.14
 -17  -7 -11    6.64    1.20
 -17   7 -10  339.60   21.94
 -17  -7 -10  319.56   21.27
 -17  -7 -10  309.28   21.29
 -17  -7  -9  137.37    8.86
 -17  -7  -9  130.72    8.90
  17   7   9  112.68    8.44
 -17  -7  -8 1865.71  116.94
 -17   7  -8 2104.97  118.10
 -17  -7  -8 1840.73  116.78
 -17  -7  -8 1766.30  116.90
  17   7   8 1766.98  116.44
 -17  -7  -7  380.34   24.65
 -17   7  -7  356.28   25.32
 -17  -7  -7  356.29   24.32
  17   7   7  362.13   24.03
 -17  -7  -6  679.99   43.73
 -17   7  -6  718.86   44.66
 -17  -7  -6  627.21   43.28
 -17  -7  -5   70.34    6.07
 -17   7  -5   58.60    6.31
 -17  -7  -5   61.08    5.55
 -17  -7  -5   69.22    6.03
 -17   7  -4  403.91   25.48
 -17  -7  -4  342.49   23.99
 -17  -7  -4  345.04   24.46
 -17   7  -3    5.69    2.04
 -17  -7  -3    7.45    1.59
 -17  -7  -3    4.99    1.83
 -17  -7  -2   77.78    6.28
 -17  -7  -2   69.57    6.67
 -17  -7  -1  144.19   10.98
 -17  -7  -1  133.20   10.41
 -17  -7  -1  155.65   11.34
 -17  -7   0   46.14    4.73
 -17   7   0   43.03    4.99
  17   7   0   41.79    6.93
 -17  -7   0   44.91    4.84
 -17  -7   1    6.09    1.77
 -17   7   1    7.86    2.21
 -17  -7   1    3.06    1.69
 -17  -7   2   14.70    2.52
 -17   7   2   12.03    2.64
 -17  -7   2   11.61    2.39
 -17  -7   3   82.23    7.53
 -17   7   3   87.15    7.85
 -17  -7   3  100.50    7.93
 -17  -7   4  142.41   11.42
 -17   7   4  161.94   11.99
 -17  -7   4  146.37   11.41
 -17  -7   5  277.25   19.20
 -17   7   5  245.66   19.62
 -17   7   5  261.85   19.32
 -17  -7   5  292.58   19.21
 -17  -7   6  435.38   29.21
 -17   7   6  418.71   29.95
 -17  -7   6  432.97   28.99
 -17   7   7   87.00    8.79
 -17  -7   7  111.41    8.28
 -17   7   8   12.57    2.66
 -17  -7   8    5.79    1.50
 -17   7   9   14.87    3.25
 -17   7  10   63.52    6.88
 -17   7  11   20.18    3.86
 -17   7  12   23.87    3.89
 -17   7  13   60.01    7.22
  17   7 -13   81.54    6.58
 -17   7  14   90.81    9.72
  17   7 -14  119.29    8.85
  17   7 -15  198.71   14.46
  17   7 -16  138.77   10.68
  17   7 -17   15.65    2.56
  17   7 -18    4.39    1.53
  17   7 -18    7.65    1.80
  17   7 -19   16.02    2.62
  17   7 -20   89.44    7.57
  17   7 -21   26.04    3.36
  17   7 -22  258.71   18.12
  17   7 -23  307.64   21.04
  17   7 -24 1400.35   89.46
  17   7 -25  217.78   15.11
  17   7 -26  483.42   31.58
  17   7 -27   16.92    1.96
 -17  -9 -10   33.72    2.68
 -17  -9  -9   10.29    1.17
 -17  -9  -9   11.66    1.38
 -17  -9  -8   51.57    3.92
 -17   9  -7    2.01    1.32
 -17  -9  -7    3.95    0.82
 -17   9  -6   57.30    5.50
 -17  -9  -6   55.36    4.45
 -17  -9  -6   63.18    4.91
 -17   9  -5   10.19    2.43
 -17  -9  -5   15.47    1.72
 -17  -9  -5   14.21    2.06
 -17  -9  -4  153.43   11.14
 -17  -9  -4  181.23   11.86
 -17  -9  -3    5.66    1.63
 -17   9  -2 1157.11   71.76
 -17  -9  -2 1067.14   70.81
 -17   9  -1  253.28   16.33
 -17  -9  -1  194.17   15.12
 -17   9   0 1205.90   78.29
 -17  -9   0 1209.20   77.61
 -17   9   1   14.85    2.71
 -17  -9   1    6.11    1.74
 -17  -9   2  630.74   41.63
 -17   9   2  659.89   42.60
 -17  -9   2  630.93   41.88
 -17  -9   3   40.45    4.16
 -17   9   3   47.84    4.91
 -17  -9   3   41.42    4.29
 -17  -9   4  110.34    8.88
 -17  -9   4  109.17    8.86
 -17  -9   5  145.00   10.37
 -17   9   5  124.41   10.67
 -17  -9   5  137.87   10.20
 -17  -9   6  161.09   11.95
 -17   9   6  173.15   12.54
 -17  -9   6  158.11   11.70
 -17  -9   7    3.70    1.40
 -17   9   7    0.41    1.20
 -17   9   7    6.62    2.10
 -17  -9   7    5.27    1.30
 -17  -9   8  479.90   30.95
 -17   9   8  478.09   32.18
 -17   9   8  435.77   31.07
 -17  -9   9    3.41    1.61
 -17   9   9    5.34    1.74
 -17   9  10  636.30   41.01
 -17   9  10  582.28   39.65
 -17   9  11    2.88    1.98
 -17   9  11    6.15    1.60
  17   9 -11    4.75    1.51
 -17   9  12  328.62   23.08
 -17   9  12  285.05   21.42
  17   9 -12  351.89   21.79
 -17   9  13   47.94    5.68
  17   9 -13   46.95    4.50
 -17   9  14  216.40   16.77
  17   9 -14  222.64   15.48
 -17   9  15   55.19    6.18
  17   9 -15   53.24    5.03
  17   9 -15   57.51    5.06
 -17   9  16  232.22   18.36
  17   9 -16  253.37   17.29
  17   9 -16  253.29   17.19
 -17   9  17  195.74   15.01
  17   9 -17  188.10   13.72
  17   9 -17  186.95   13.58
  17  -9 -17  214.41   14.69
 -17   9  18  245.59    9.56
  17  -9 -18   -0.38    0.88
 -17   9  19    3.37    1.60
 -17   9  20  230.62   16.85
 -17   9  21   22.64    3.26
  17   9 -22   32.93    2.77
  17   9 -22   19.57    2.15
  17   9 -23    1.11    0.78
  17   9 -24    6.49    1.10
 -17 -11  -4   61.44    4.48
 -17 -11  -3   10.64    1.30
 -17  11  -2    3.12    1.23
 -17 -11  -2    2.84    0.78
 -17  11  -1    2.22    1.22
 -17 -11  -1    2.90    0.86
 -17  11   0   13.33    2.15
 -17 -11   0   11.36    1.53
 -17  11   1    1.49    1.13
 -17 -11   1    1.22    0.79
 -17  11   2   21.11    2.93
 -17 -11   2   29.44    2.63
 -17  11   3  451.93   29.14
 -17 -11   3  430.04   28.35
 -17  11   4  262.03   20.59
 -17 -11   4  334.81   20.14
 -17  11   5  513.07   33.75
 -17  11   6  189.98    6.14
  17  11  -6  244.31    6.17
 -17  11   7  509.45    9.56
  17  11  -7  596.15    9.60
  17  11  -8   51.23    4.62
  17  11  -8   89.10    5.43
  17  11  -9  315.04   21.94
  17  11  -9  371.28   22.40
  17  11 -10    5.12    1.04
  17  11 -10    4.82    1.19
  17  11 -11  179.12   12.70
  17  11 -11  202.01   13.03
  17  11 -12   45.43    3.74
  17  11 -12   45.95    3.89
  17  11 -13  171.64   12.30
  17  11 -13  186.61   12.50
  17 -11 -13  200.98   13.37
 -17  11  14   73.73    6.25
  17  11 -14   69.80    5.41
  17  11 -14   70.15    5.51
  17 -11 -14   86.78    6.39
  17  11 -15   25.20    2.28
  17  11 -15   20.19    2.21
  17 -11 -15   26.96    2.87
  17  11 -16   42.57    3.53
  17 -11 -16   47.61    4.01
  17  11 -17  124.29    8.52
  17  11 -18   23.02    2.06
 -18   0 -17   -0.52    0.89
 -18   0 -16   89.07    6.83
 -18   0 -15    2.65    1.53
 -18   0 -15    2.10    1.35
 -18   0 -14 1814.44  108.90
 -18   0 -14 1600.20  108.86
 -18   0 -13   10.98    2.87
 -18   0 -13   15.46    2.88
 -18   0 -12 2888.00  175.29
 -18   0 -12 2626.23  175.25
 -18   0 -11    4.48    2.63
 -18   0 -11    8.29    2.69
 -18   0 -10  190.37   14.35
 -18   0 -10  186.03   13.39
 -18   0 -10  185.80   14.50
 -18   0  -9   -0.52    1.73
 -18   0  -9    1.36    1.23
 -18   0  -8   14.99    3.14
  18   0   8    4.47    4.23
 -18   0  -8   18.27    2.63
 -18   0  -8   10.46    4.66
 -18   0  -7    1.17    1.87
  18   0   7   -2.25    3.22
 -18   0  -7    1.15    1.27
 -18   0  -7    2.14    3.95
  18   0   6   96.22   14.74
 -18   0  -6  126.60   10.22
 -18   0  -6  117.06    9.34
 -18   0  -6  119.87   15.82
 -18   0  -6  110.26   10.06
  18   0   5   -2.21    3.16
 -18   0  -5   -3.47    2.29
 -18   0  -5   -0.54    1.68
 -18   0  -5    2.43    1.46
 -18   0  -5    2.13    3.52
 -18   0  -4 1013.00   68.26
 -18   0  -4 1061.07   76.69
 -18   0  -4 1101.57   67.76
  18   0   4  919.19   75.54
 -18   0  -4 1028.18   68.53
  18   0   3    2.12    3.94
 -18   0  -3    9.54    2.52
 -18   0  -3    7.25    2.37
 -18   0  -3    4.13    4.84
 -18   0  -3    2.87    1.62
 -18   0  -2 2490.83  150.04
  18   0   2 2082.48  148.50
 -18   0  -2 2151.45  140.57
  18   0   1    6.17    4.53
 -18   0  -1    7.68    2.81
 -18   0  -1   14.21    6.07
 -18   0   0 3079.19  190.43
 -18   0   0 2865.74  180.64
  18   0   0 2767.24  189.22
 -18   0   0 2783.39  181.42
  18   0  -1   -2.04    4.14
 -18   0   1    2.19    2.23
 -18   0   1    4.65    1.68
 -18   0   2 1008.95   66.83
 -18   0   2  809.16   56.32
  18   0  -2  902.08   65.57
 -18   0   2  917.52   57.56
  18   0  -3   -2.10    3.01
 -18   0   3    0.56    1.59
 -18   0   3    0.76    1.18
 -18   0   3    1.80    1.49
 -18   0   3   -2.13    3.93
 -18   0   3    2.96    1.50
 -18   0   4   62.44    5.68
 -18   0   4   60.90    6.01
 -18   0   4   67.68   11.48
 -18   0   4   64.02    5.65
 -18   0   4   50.47    6.08
  18   0  -4   70.26   11.50
 -18   0   5    3.62    1.34
 -18   0   5    2.29    1.61
 -18   0   5   -2.27    3.25
 -18   0   5    3.50    1.45
  18   0  -5   -2.16    3.10
 -18   0   5    0.57    1.81
 -18   0   6  161.32   12.25
 -18   0   6  153.02   12.68
 -18   0   6  184.14   20.69
 -18   0   6  174.12   12.32
 -18   0   6  176.83   13.48
 -18   0   7    2.08    1.19
 -18   0   7    3.33    1.58
 -18   0   7    4.79    4.43
 -18   0   7    1.32    1.29
 -18   0   8   23.86    2.92
 -18   0   8   21.21    3.23
 -18   0   8   12.30    6.23
 -18   0   8   18.03    2.58
 -18   0   9    0.34    0.93
 -18   0   9    3.03    1.39
 -18   0   9    2.51    1.13
  18   0  -9    1.14    1.56
 -18   0  10  848.49   55.21
 -18   0  10  863.55   55.08
 -18   0  10  794.07   62.76
  18   0 -10  850.38   56.59
 -18   0  11    6.30    1.59
 -18   0  11    1.92    3.56
  18   0 -11    5.11    2.28
 -18   0  12  451.15   36.78
  18   0 -12  432.21   30.43
  18   0 -13    0.57    1.49
 -18   0  13    1.91    3.53
 -18   0  14  168.82   17.82
  18   0 -14  132.58   11.46
 -18   0  15    1.94    3.21
  18   0 -15    2.29    2.01
 -18   0  16   33.41    7.92
  18   0 -16   34.42    4.58
 -18   0  17   -2.00    3.31
  18   0 -17   -0.58    1.92
 -18   0  18  130.98   16.73
  18   0 -18  145.77   11.87
  18   0 -19    0.59    1.53
 -18   0  19    2.08    4.56
  18   0 -20  348.69   32.94
  18   0 -20  368.96   26.38
 -18   0  20  398.75   34.13
 -18   0  21    2.13    3.52
  18   0 -21    4.17    3.45
  18   0 -21   -0.59    1.87
  18   0 -22   63.68    6.69
 -18   0  22   72.37   11.65
  18   0 -22   48.03   10.36
 -18   0  23    2.11    2.46
  18   0 -23   -2.08    3.44
  18   0 -23    1.13    1.81
  18   0 -24  496.29   34.15
  18   0 -25   -0.51    2.04
  18   0 -26   87.05    7.93
  18   0 -27    1.76    1.37
  18   0 -28  541.38   36.17
  18   0 -29    1.08    1.40
  18   0 -30  916.51   59.23
  18   0 -31    0.27    1.08
  18   0 -32  400.30   26.31
 -18  -2 -16   44.98    3.79
 -18   2 -16   45.81    4.01
 -18  -2 -15    0.24    0.96
 -18   2 -15   -0.28    1.15
 -18  -2 -14  141.91   10.16
 -18   2 -14  145.99   10.30
 -18  -2 -14  129.93   10.16
 -18   2 -14  137.51   10.53
 -18  -2 -13  192.72   13.69
 -18   2 -13  224.32   14.10
 -18  -2 -13  165.91   13.65
 -18   2 -13  190.07   14.20
 -18  -2 -12    5.86    1.75
 -18   2 -12   11.76    2.42
 -18  -2 -12   14.31    2.38
 -18   2 -12    9.96    2.20
 -18  -2 -12    5.44    1.35
 -18  -2 -11    1.31    1.31
 -18   2 -11    3.15    1.90
 -18  -2 -11    2.88    1.70
 -18  -2 -11    4.81    1.53
 -18   2 -11    1.71    1.34
 -18  -2 -11    3.96    1.27
 -18  -2 -10    7.05    2.27
 -18   2 -10    9.64    2.47
 -18  -2 -10    9.79    2.51
 -18  -2 -10    6.98    2.14
 -18   2 -10    0.46    1.54
 -18  -2 -10    9.37    1.83
 -18  -2  -9  381.49   27.48
 -18  -2  -9  404.00   27.25
 -18   2  -9  479.46   27.88
 -18  -2  -9  370.07   26.76
 -18  -2  -9  384.67   26.57
 -18  -2  -9  325.20   26.93
 -18   2  -9  465.48   28.43
 -18  -2  -8  824.78   49.72
 -18   2  -8  602.58   48.67
 -18  -2  -8  829.75   48.99
 -18  -2  -8  807.64   48.65
 -18  -2  -8  717.40   49.20
 -18   2  -8  668.35   49.48
 -18  -2  -7 1553.37   94.46
 -18   2  -7 1509.16   94.13
 -18  -2  -7 1357.53  101.00
 -18   2  -7 1640.68  103.40
 -18  -2  -7 1496.01   93.65
 -18  -2  -7 1432.58   93.37
  18  -2   7 1332.97  103.90
  18   2   7 1254.32  100.49
 -18  -2  -7 1271.68   93.75
 -18   2  -7 1608.10   95.06
 -18  -2  -6  692.94   41.37
 -18   2  -6  502.64   40.22
 -18   2  -6  585.10   39.85
 -18  -2  -6  661.00   48.60
 -18   2  -6  517.10   47.23
 -18  -2  -6  667.69   40.56
 -18  -2  -6  686.82   40.46
  18  -2   6  527.44   49.37
  18   2   6  632.66   48.43
 -18  -2  -6  618.60   40.86
 -18   2  -6  519.51   40.87
 -18  -2  -5 1479.92   99.91
 -18   2  -5 1574.64   99.75
 -18   2  -5 1715.86   99.33
 -18  -2  -5 1483.05  107.00
 -18   2  -5 1687.80  108.93
 -18  -2  -5 1529.79   99.35
 -18  -2  -5 1575.03   99.38
  18  -2   5 1410.86  109.64
  18   2   5 1267.40  105.67
 -18  -2  -5 1380.40   99.59
 -18   2  -5 1663.31  100.68
 -18   2  -4  277.04   21.52
 -18  -2  -4  357.46   29.58
 -18   2  -4  268.04   27.93
 -18  -2  -4  354.62   21.86
 -18   2  -4  286.95   21.04
 -18  -2  -4  333.77   21.73
  18  -2   4  269.41   29.52
  18   2   4  324.77   28.80
 -18  -2  -4  321.71   22.10
 -18   2  -4  263.55   22.09
  18  -2   3   79.31   13.75
  18   2   3   72.21   11.83
 -18   2  -3   95.15    8.20
 -18  -2  -3   97.49    8.09
 -18   2  -3   95.14    7.79
 -18  -2  -3   81.87   12.65
 -18   2  -3   89.74   13.26
 -18  -2  -3   89.04    8.36
 -18   2  -3  101.42    9.04
  18  -2   2   29.23    8.88
  18   2   2   44.89    8.68
 -18  -2  -2   35.64    4.64
 -18   2  -2   37.03    5.07
 -18   2  -2   39.50    4.50
 -18  -2  -2   39.14    4.40
 -18  -2  -2   47.06    8.87
 -18   2  -2   38.39    8.21
 -18   2  -2   41.13    4.27
  18  -2   1   24.02    6.96
 -18  -2  -1   18.67    3.08
 -18   2  -1   29.24    4.02
 -18   2  -1   20.95    2.97
 -18  -2  -1   20.28    2.85
 -18  -2  -1   18.62    6.25
 -18   2  -1   26.22    7.35
 -18   2  -1   21.55    2.85
 -18  -2  -1   12.69    2.74
 -18   2   0  660.45   45.01
 -18  -2   0  669.03   52.10
 -18   2   0  651.22   52.66
 -18  -2   0  689.05   44.93
 -18  -2   0  726.99   45.47
  18  -2   0  615.16   53.84
  18   2   0  679.33   52.16
 -18  -2   0  691.41   45.70
 -18   2   0  678.77   46.11
  18  -2  -1  106.69   14.58
  18   2  -1   71.39   10.90
 -18   2   1   69.71    6.42
 -18  -2   1  104.47   13.05
 -18   2   1   71.86   11.52
 -18  -2   1   70.61    6.31
 -18  -2   1   80.80    6.90
 -18  -2   1   63.40    6.83
 -18   2   1   66.45    7.18
  18  -2  -2   66.35   11.97
  18   2  -2   69.80   10.76
 -18  -2   2   71.30    6.37
 -18  -2   2   63.96   10.76
 -18   2   2   56.43   10.44
 -18  -2   2   65.27    5.74
 -18   2   2   62.95    5.80
 -18  -2   2   70.18    6.28
 -18  -2   2   68.09    6.59
 -18   2   2   52.67    6.50
 -18  -2   3  771.88   51.57
 -18  -2   3  764.39   58.90
 -18   2   3  827.75   60.99
 -18   2   3  813.53   51.30
 -18  -2   3  801.50   51.57
  18  -2  -3  775.05   61.29
  18   2  -3  733.61   58.25
 -18  -2   3  704.05   51.77
 -18   2   3  859.49   52.77
 -18  -2   4  619.25   40.47
 -18   2   4  572.51   40.54
 -18  -2   4  640.35   40.44
 -18  -2   4  623.90   48.19
 -18   2   4  545.28   48.37
 -18   2   4  593.12   39.99
 -18  -2   4  640.36   40.43
  18  -2  -4  551.98   48.91
  18   2  -4  635.01   48.01
 -18  -2   4  642.76   41.06
 -18   2   4  555.26   41.05
 -18  -2   5 1881.51  122.24
 -18   2   5 1981.87  122.77
 -18  -2   5 1847.04  122.20
 -18  -2   5 1874.63  130.53
 -18   2   5 2135.26  134.07
 -18  -2   5 1915.68  122.12
  18  -2  -5 2047.74  133.70
  18   2  -5 1899.15  130.05
 -18  -2   5 1771.66  122.64
 -18   2   5 2098.12  123.56
 -18  -2   6 1871.80  118.87
 -18   2   6 1763.52  119.21
 -18  -2   6 1863.73  118.95
 -18  -2   6 1944.05  128.44
 -18   2   6 1743.78  128.82
 -18  -2   6 1928.49  118.77
 -18  -2   7 1288.47   87.16
 -18   2   7 1469.45   88.08
 -18  -2   7 1380.88   87.44
 -18  -2   7 1355.16   96.56
 -18   2   7 1471.55   99.37
 -18  -2   7 1313.53   86.94
 -18  -2   8  470.23   31.89
 -18   2   8  447.66   32.47
 -18  -2   8  479.27   32.23
 -18  -2   8  532.96   41.56
 -18   2   8  478.31   42.31
 -18  -2   8  484.77   31.65
 -18   2   9  195.11   13.71
 -18  -2   9  168.09   12.88
 -18  -2   9  148.75   19.03
 -18   2   9  119.81   18.60
 -18  -2   9  150.50   12.03
  18  -2  -9  204.06   13.97
  18   2  -9  159.65   12.95
 -18  -2  10  197.41   14.27
 -18   2  10  208.58   14.93
 -18   2  10  148.41   20.87
 -18  -2  10  176.30   13.31
  18  -2 -10  200.27   14.85
  18   2 -10  198.58   14.43
 -18  -2  11  216.81   22.67
 -18   2  11  191.72   23.15
  18  -2 -11  229.86   17.97
  18   2 -11  278.48   18.16
  18  -2 -12   19.45    3.31
  18   2 -12   15.59    2.95
 -18  -2  12   17.82    5.81
 -18   2  12   27.78    7.58
 -18  -2  13    1.79    2.96
 -18   2  13    2.15    3.08
  18  -2 -13    1.65    1.77
  18   2 -13    2.03    1.78
 -18  -2  14  165.58   18.32
 -18   2  14  153.63   19.16
  18  -2 -14  173.63   13.56
  18   2 -14  173.64   13.40
 -18  -2  15   38.23    8.23
 -18   2  15   28.49    8.25
  18  -2 -15   56.64    5.78
  18   2 -15   50.07    5.40
 -18  -2  16  695.33   48.80
 -18   2  16  622.11   49.57
  18  -2 -16  580.74   41.06
  18   2 -16  613.46   41.09
 -18  -2  17  385.79   33.55
 -18   2  17  465.97   36.93
  18  -2 -17  407.36   27.51
  18   2 -17  362.15   27.14
 -18  -2  18  768.13   59.75
 -18   2  18  806.50   62.21
  18  -2 -18  823.94   53.25
  18   2 -18  784.46   53.04
  18  -2 -19   77.04    7.10
  18   2 -19   68.19    6.83
  18  -2 -19   71.36   11.42
 -18  -2  19   81.75   12.17
 -18   2  19   87.26   13.91
 -18  -2  20  760.01   55.70
 -18   2  20  754.07   57.48
  18   2 -20  716.61   46.96
  18   2 -20  735.40   54.90
  18  -2 -20  642.84   54.02
  18  -2 -20  710.68   47.84
  18   2 -20  712.41   47.84
  18   2 -21   29.68    3.89
  18  -2 -21   49.35    5.15
  18   2 -21   42.96    4.95
  18   2 -21   36.37    8.12
  18  -2 -21   44.96    9.03
 -18  -2  21   35.68    8.38
 -18   2  21   52.90   10.60
  18   2 -22   89.44    7.77
  18  -2 -22  106.98    8.83
  18   2 -22  101.36    8.66
  18   2 -22   93.84   13.44
  18  -2 -22   87.58   13.23
 -18  -2  22   69.23   12.37
 -18   2  22  105.51   15.61
  18   2 -23   85.33    7.09
  18  -2 -23   86.95    7.82
  18   2 -23   76.50    7.54
  18  -2 -24  251.59   18.79
  18   2 -24  266.74   18.92
  18  -2 -25   10.67    2.39
  18   2 -25   13.73    2.59
  18  -2 -26   61.74    6.02
  18   2 -26   64.85    6.05
  18  -2 -27   74.92    7.05
  18   2 -27   91.13    7.30
  18  -2 -28  180.60   13.41
  18   2 -28  186.72   13.41
  18  -2 -29    8.28    1.88
  18   2 -29   15.47    2.19
  18   2 -30   32.92    3.19
  18  -2 -30   23.69    2.98
  18  -2 -31   46.35    4.54
  18   2 -31   65.09    4.72
 -18  -4 -14    2.22    1.10
 -18   4 -14    5.74    1.65
 -18  -4 -13 1023.67   12.48
 -18   4 -13 1187.81   15.68
 -18   4 -12   12.56    2.99
 -18  -4 -12   39.90    3.28
 -18   4 -12   14.96    2.65
 -18  -4 -12   38.66    3.12
 -18  -4 -12   42.48    3.57
 -18  -4 -11  719.54   47.58
 -18  -4 -11  717.68   46.99
 -18   4 -11  752.98   47.21
 -18  -4 -11  744.85   47.15
 -18  -4 -11  716.57   46.90
 -18  -4 -11  647.89   47.04
 -18   4 -11  825.45   48.11
 -18  -4 -10    0.72    1.40
 -18   4 -10    1.43    1.89
 -18  -4 -10    2.98    1.54
 -18  -4 -10    4.04    1.53
 -18   4 -10    2.03    1.35
 -18  -4 -10    2.56    1.33
 -18  -4 -10    4.15    1.44
 -18  -4  -9   60.60    5.72
 -18   4  -9   53.35    5.08
 -18  -4  -9   51.96    5.03
 -18   4  -9   53.28    5.21
 -18  -4  -9   50.02    4.95
 -18  -4  -9   53.92    4.99
 -18  -4  -9   46.60    5.07
 -18   4  -9   56.88    6.02
 -18  -4  -8    3.45    1.60
 -18   4  -8    0.56    2.07
 -18  -4  -8    5.80    2.04
 -18   4  -8    1.24    1.57
 -18  -4  -8    3.33    1.63
 -18   4  -8   -0.80    1.63
 -18  -4  -8    2.96    1.60
 -18  -4  -7  937.31   61.16
 -18   4  -7  969.12   60.91
 -18  -4  -7  932.51   60.52
 -18   4  -7  953.71   60.74
 -18  -4  -7  921.45   60.51
 -18  -4  -7  929.01   60.54
 -18  -4  -7  860.02   60.70
 -18   4  -7  954.59   61.67
 -18  -4  -6  114.15    9.37
 -18   4  -6  106.08    8.94
 -18  -4  -6  109.85    8.66
 -18  -4  -6  113.88    8.83
 -18  -4  -6  100.57    8.84
 -18   4  -6   80.71    8.99
  18  -4   5   61.82   13.16
  18   4   5   49.04    9.37
 -18   4  -5   66.08    6.23
 -18  -4  -5   54.76    5.64
 -18  -4  -5   53.38    9.28
 -18   4  -5   50.49    9.33
 -18  -4  -5   65.50    6.27
 -18   4  -5   73.44    7.18
  18  -4   4    2.57    3.68
  18   4   4    3.52    2.91
 -18  -4  -4    2.98    1.93
 -18   4  -4    1.22    1.89
 -18   4  -4    3.29    1.78
 -18  -4  -4    0.41    1.38
 -18  -4  -4   -1.63    4.47
 -18   4  -4    1.76    3.25
  18  -4   3  127.65   18.46
 -18   4  -3  143.52   11.87
 -18  -4  -3  114.10   15.33
 -18   4  -3  121.67   16.10
 -18  -4  -3  191.10   12.13
 -18  -4  -3  155.42   12.01
  18   4   3  145.55   16.88
 -18  -4  -3  155.07   12.18
 -18   4  -3  152.14   12.66
  18  -4   2    7.56    5.14
  18   4   2   15.69    5.43
 -18  -4  -2   11.96    2.98
 -18   4  -2    6.62    2.70
 -18   4  -2    3.07    1.73
 -18  -4  -2   18.65    2.72
 -18  -4  -2   27.48    6.16
 -18   4  -2   10.54    4.86
 -18  -4  -2   20.10    3.27
 -18  -4  -1 2846.30  182.03
 -18   4  -1 2701.92  181.26
 -18  -4  -1 3097.62  188.98
 -18   4  -1 2992.71  189.43
 -18  -4  -1 2868.40  181.44
 -18  -4  -1 2940.40  182.14
  18  -4   1 2869.63  192.84
  18   4   1 2760.32  188.66
 -18  -4  -1 2860.90  182.15
 -18   4  -1 2965.28  182.77
 -18   4   0   23.83    4.73
 -18  -4   0   68.28    5.77
 -18   4   0   32.30    4.10
 -18  -4   0   57.18    4.86
 -18  -4   0   81.22   10.66
 -18   4   0   35.14    7.92
 -18  -4   0   71.11    5.87
 -18  -4   0   49.16    5.29
  18  -4   0   29.05    8.24
  18   4   0   44.44    8.35
 -18  -4   1  878.41   55.07
 -18  -4   1  837.82   60.64
 -18   4   1  952.91   62.75
 -18   4   1  800.46   54.03
  18   4  -1  763.19   57.51
 -18  -4   1  832.59   54.14
 -18  -4   1  855.01   55.01
  18  -4  -1  836.19   64.46
  18   4  -1  811.15   60.91
 -18  -4   1  821.58   55.00
 -18   4   1  862.32   55.57
 -18  -4   2   25.32    3.50
 -18  -4   2   19.21    5.30
 -18   4   2   14.44    5.34
 -18  -4   2   29.69    3.75
  18  -4  -2   20.80    7.02
  18   4  -2   18.46    5.88
 -18  -4   2   30.65    3.71
 -18   4   2   13.41    2.87
 -18  -4   3   66.43    6.53
 -18  -4   3   79.14   10.85
 -18   4   3   66.45   10.84
 -18  -4   3   68.44    6.57
 -18   4   3   79.21    7.22
 -18  -4   4   42.61    4.73
 -18  -4   4   41.32    8.21
 -18   4   4   40.28    8.40
 -18  -4   4   47.74    4.98
 -18  -4   5  190.58   14.29
 -18  -4   5  202.64   20.00
 -18   4   5  247.12   22.55
 -18  -4   5  195.08   14.26
 -18   4   5  181.15   13.87
 -18   4   6    0.75    1.31
 -18   4   6    4.01    1.48
 -18  -4   6    2.88    1.23
 -18  -4   6   -1.74    3.52
 -18   4   6   -2.09    5.18
 -18  -4   6    1.59    1.51
 -18  -4   7   33.92    3.53
 -18   4   7   20.67    3.24
 -18  -4   7   21.79    6.04
 -18   4   7   30.76    7.67
 -18   4   7   21.90    3.22
 -18  -4   7   25.67    3.30
  18  -4  -7   32.64    4.05
  18   4  -7   28.07    3.44
 -18   4   8   12.80    2.40
 -18  -4   8    8.90    1.86
 -18   4   8    9.98    2.12
 -18  -4   8    5.65    4.17
 -18   4   8   16.41    7.01
 -18  -4   8    9.33    1.97
  18   4  -8    5.34    1.70
 -18   4   9  500.63   34.44
 -18  -4   9  537.53   33.96
 -18  -4   9  541.69   42.32
 -18   4   9  494.08   43.85
 -18   4   9  457.41   33.85
 -18  -4   9  515.98   33.67
  18  -4  -9  533.99   34.55
  18   4  -9  496.85   33.98
 -18   4  10  176.11   14.85
 -18  -4  10  248.03   14.99
 -18  -4  10  247.47   23.53
 -18   4  10  189.60   23.37
 -18   4  10  155.84   14.27
  18  -4 -10  180.28   14.71
  18   4 -10  247.93   15.10
 -18   4  11 1361.32   88.37
 -18  -4  11 1499.00   87.81
 -18  -4  11 1240.71   95.92
 -18   4  11 1284.04   98.75
 -18   4  11 1247.87   87.60
  18  -4 -11 1354.69   87.88
  18   4 -11 1390.55   87.65
 -18  -4  12  154.48   10.05
 -18   4  12   94.16    9.69
 -18  -4  12  147.77   17.66
 -18   4  12  100.70   16.79
 -18   4  12   92.82    9.24
  18  -4 -12   93.48    9.21
  18   4 -12  161.50   10.09
 -18  -4  13 2941.05  170.34
 -18   4  13 2586.45  170.85
 -18   4  13 2226.60  180.49
 -18  -4  13 2586.74  179.22
  18  -4 -13 2571.57  170.08
  18   4 -13 2703.44  170.01
 -18   4  14   -2.30    4.67
  18  -4 -14    6.83    1.79
  18   4 -14    5.94    1.81
 -18  -4  14   -1.71    4.25
 -18  -4  15  283.49   25.81
 -18   4  15  251.25   27.22
  18  -4 -15  272.18   19.64
  18   4 -15  279.20   19.55
 -18  -4  16    5.31    4.14
 -18   4  16    2.39    3.96
  18  -4 -16    3.16    1.55
  18   4 -16    2.16    1.34
 -18  -4  17  280.74   26.71
 -18   4  17  284.78   29.59
  18   4 -17  280.49   25.45
  18  -4 -17  294.40   20.79
  18   4 -17  299.72   20.78
  18   4 -18   -1.53    4.00
  18  -4 -18   -3.21    4.60
  18  -4 -18    4.94    1.85
  18   4 -18   -0.44    1.40
 -18  -4  18    1.83    2.62
 -18   4  18    2.47    3.53
 -18  -4  19  160.75   17.05
  18   4 -19  117.51   14.31
  18  -4 -19  117.59   14.65
  18  -4 -19  131.10   10.60
  18   4 -19  136.00   10.57
 -18   4  19  144.82   18.60
 -18  -4  20  123.07   15.23
  18   4 -20  108.31   13.38
  18  -4 -20  104.67   13.45
 -18   4  20  140.09   17.91
  18  -4 -20  104.95    9.26
  18   4 -20  124.46    9.53
  18   4 -21  495.60   33.77
  18  -4 -21  493.74   33.70
  18   4 -21  513.11   33.75
  18   4 -22    2.55    1.54
  18  -4 -22    1.23    1.45
  18   4 -22    3.20    1.56
  18   4 -23  266.57   18.63
  18  -4 -23  252.28   18.42
  18   4 -23  267.57   18.50
  18   4 -24    1.55    1.39
  18  -4 -24    1.45    1.08
  18   4 -24    0.35    1.30
  18   4 -25  125.11    9.56
  18  -4 -25  110.15    9.25
  18   4 -25  132.69    9.46
  18   4 -26    1.93    1.15
  18  -4 -26    3.94    1.12
  18   4 -27  276.62   19.64
  18  -4 -27  300.82   19.72
  18   4 -27  294.09   19.60
  18  -4 -28    1.40    0.83
  18   4 -28    2.99    0.86
  18  -4 -29  140.92    9.94
  18   4 -29  143.19    9.84
 -18  -6 -12  149.22   10.14
 -18  -6 -11   25.27    2.54
 -18  -6 -11   22.77    2.41
 -18  -6 -10   10.09    1.73
 -18  -6 -10   11.52    1.62
 -18  -6 -10   10.70    1.66
 -18  -6  -9  501.65   32.99
 -18   6  -9  564.02   33.51
 -18  -6  -9  493.15   32.71
 -18  -6  -9  496.55   32.78
  18   6   9  474.62   32.41
 -18  -6  -8  390.86   27.16
 -18  -6  -8  381.50   26.80
 -18  -6  -8  395.55   26.97
  18   6   8  382.69   26.51
 -18  -6  -7 1133.48   72.40
 -18   6  -7 1245.73   73.08
 -18  -6  -7 1116.18   71.94
 -18  -6  -7 1123.69   72.15
  18   6   7 1064.26   71.53
 -18  -6  -6  329.27   22.92
 -18  -6  -6  292.34   22.26
  18   6   6  302.34   21.95
 -18   6  -6  375.57   22.78
 -18  -6  -5  983.44   57.49
 -18   6  -5  932.94   57.75
 -18  -6  -5  860.47   56.57
 -18   6  -5  785.57   56.59
 -18   6  -4  140.05   10.46
 -18  -6  -4  121.09    9.29
 -18  -6  -4  108.63    9.49
 -18   6  -3   16.67    3.04
 -18  -6  -3   16.60    2.52
 -18  -6  -3   24.68    3.26
 -18   6  -2  257.29   18.61
 -18  -6  -2  250.88   17.63
 -18  -6  -2  257.10   18.34
 -18   6  -1    7.95    2.39
 -18  -6  -1   13.62    2.08
 -18  -6  -1   10.73    2.52
 -18  -6   0  244.18   17.51
 -18  -6   0  227.66   16.62
 -18  -6   0  263.62   17.78
 -18  -6   1   89.62    7.91
 -18  -6   1   92.94    7.98
 -18  -6   2   17.06    2.86
 -18  -6   2   21.22    3.13
 -18  -6   3  655.24   43.87
 -18  -6   3  668.02   43.88
 -18  -6   4  450.66   31.55
 -18  -6   4  482.74   31.60
 -18  -6   5  420.15   28.19
 -18   6   5  357.86   28.18
 -18  -6   5  458.47   28.24
 -18  -6   6  994.54   66.76
 -18   6   6 1060.88   67.29
 -18  -6   6 1032.08   66.53
 -18  -6   7  346.08   23.34
 -18   6   7  296.55   23.42
 -18  -6   7  354.42   23.01
 -18   6   8  245.19   18.38
 -18  -6   8  250.29   17.43
 -18   6   9   72.67    7.18
 -18   6  10  106.01    8.37
 -18   6  10  100.35    9.26
 -18   6  11  139.42   10.84
 -18   6  11  151.13   12.13
 -18   6  12   11.71    2.31
 -18   6  12   10.32    2.84
 -18   6  13   18.50    2.78
 -18   6  13   18.06    3.65
  18   6 -13   25.09    3.02
 -18   6  14  181.00   13.59
 -18   6  14  182.24   14.82
  18   6 -14  189.17   13.51
  18   6 -15   28.97    3.49
  18   6 -15   23.53    3.04
 -18   6  16  563.77   40.28
  18   6 -16  619.43   40.18
  18   6 -16  636.94   39.89
 -18   6  17  328.51   24.88
  18   6 -17  380.97   24.79
  18   6 -17  376.82   24.44
  18   6 -18  364.80   24.43
  18   6 -19   90.67    7.13
  18   6 -20  297.93   20.51
  18   6 -20  287.38   19.63
  18   6 -21   71.71    6.44
  18   6 -22   52.04    5.12
  18   6 -23   26.83    3.36
  18   6 -24  134.33   10.16
  18   6 -25   22.79    2.84
  18   6 -26   25.24    2.87
  18   6 -27  195.55   13.45
  18   6 -28    2.42    0.84
 -18  -8 -10   43.85    3.42
 -18  -8  -9    0.65    0.55
 -18  -8  -9   -0.16    0.73
 -18   8  -8   34.26    3.64
 -18  -8  -8   35.54    2.94
 -18  -8  -8   30.73    3.07
 -18   8  -7    4.32    1.66
 -18  -8  -7    5.30    1.10
 -18   8  -6  291.38   19.11
 -18  -8  -6  258.42   17.78
 -18   8  -5    3.43    1.82
 -18  -8  -5    4.58    1.14
 -18  -8  -5    2.50    1.21
 -18  -8  -4   18.38    2.48
 -18   8  -4   22.92    3.35
 -18  -8  -4   18.25    2.20
 -18  -8  -4   23.50    2.83
 -18  -8  -3    5.91    1.24
 -18  -8  -3    2.58    1.40
 -18  -8  -2 1204.02   77.39
 -18  -8  -1  149.19   11.26
 -18   8   0 2317.63  142.89
 -18  -8   0 2175.62  142.09
 -18  -8   1   68.40    5.80
 -18   8   1   54.89    6.27
 -18  -8   1   66.20    5.93
 -18  -8   2  880.73   57.27
 -18   8   2  887.94   58.00
 -18  -8   2  880.20   57.34
 -18  -8   3    2.88    1.34
 -18   8   3    1.41    1.66
 -18  -8   3    1.78    1.25
 -18  -8   4  191.51   13.79
 -18   8   4  177.79   14.18
 -18  -8   4  194.65   13.72
 -18  -8   5    4.45    1.46
 -18   8   5    2.71    1.73
 -18  -8   5    4.63    1.47
 -18  -8   6  278.70   19.87
 -18   8   6  275.13   20.18
 -18  -8   6  298.87   19.67
 -18  -8   7    8.28    1.99
 -18   8   7    3.43    1.58
 -18   8   7    2.21    1.74
 -18  -8   7    6.16    1.49
 -18  -8   8   71.49    6.44
 -18   8   8   76.72    6.71
 -18   8   8   70.87    7.21
 -18  -8   9   32.25    3.61
 -18   8   9   25.23    3.99
 -18   8   9   24.12    3.43
 -18   8  10  513.74   36.23
 -18   8  10  538.61   35.31
 -18   8  11   19.68    2.90
 -18   8  11   18.00    3.57
 -18   8  12  505.54   37.62
 -18   8  12  531.86   36.44
  18   8 -12  600.16   36.50
 -18   8  13   16.71    3.43
 -18   8  13    8.32    1.92
  18   8 -13   13.89    2.16
 -18   8  14  173.61   12.93
  18   8 -14  163.41   11.16
 -18   8  15   10.01    2.71
  18   8 -15    9.77    1.89
 -18   8  16   20.43    3.71
  18   8 -16   18.72    2.67
 -18   8  17    1.83    1.75
  18   8 -17    3.42    1.45
  18   8 -17    1.48    1.18
 -18   8  18  172.41    8.64
  18   8 -18  164.59    6.31
  18   8 -18  152.20    5.53
 -18   8  19    3.40    1.88
  18   8 -19    1.27    1.21
 -18   8  20    4.29    2.01
  18   8 -20    6.35    1.46
 -18   8  21    4.48    2.15
  18   8 -21    3.70    1.29
 -18   8  22    3.17    1.84
  18   8 -22    3.14    1.16
 -18   8  23    1.20    1.41
  18   8 -23    1.42    0.98
  18   8 -24   80.30    6.17
  18   8 -25    3.51    0.92
  18   8 -26    3.62    0.80
 -18 -10  -6  220.29   14.46
 -18 -10  -5  224.03   14.82
 -18 -10  -4   59.77    4.62
 -18  10  -3    5.31    1.55
 -18 -10  -3    4.14    1.06
 -18  10  -2  346.09   24.16
 -18 -10  -2  363.70   23.48
 -18  10  -1  123.33    8.70
 -18 -10  -1   97.58    7.70
 -18  10   0  426.11   29.64
 -18 -10   0  453.51   29.00
 -18  10   1   10.57    2.21
 -18 -10   1   12.16    1.80
 -18  10   2    5.13    1.61
 -18 -10   2    4.98    1.24
 -18  10   3   39.84    3.98
 -18 -10   3   28.36    3.01
 -18  10   4   78.39    7.30
 -18 -10   4   98.41    6.88
 -18 -10   5  189.94   13.45
 -18  10   5  216.12   14.32
 -18 -10   5  190.04   13.33
 -18 -10   6  656.29   41.83
 -18  10   6  631.31   42.41
 -18 -10   7   81.52    6.37
 -18  10   7   79.68    6.75
 -18 -10   8   11.72    1.79
 -18  10   8   11.82    2.13
 -18 -10   9    5.33    1.26
 -18  10   9    4.20    1.42
  18  10  -9    2.20    1.11
 -18 -10  10   12.07    1.81
 -18  10  10   10.52    1.84
  18  10 -10    7.01    1.51
 -18 -10  11   49.00    4.28
 -18  10  11   48.20    5.10
  18  10 -11   41.93    3.99
 -18 -10  12  236.41   16.05
 -18  10  12  213.67   16.77
  18  10 -12  235.16   15.94
  18  10 -12  240.26   15.92
 -18 -10  13  197.75   14.07
 -18  10  13  212.56   15.07
  18  10 -13  200.48   13.96
  18  10 -13  204.18   13.93
 -18 -10  14    3.03    1.10
 -18  10  14    3.68    1.56
  18  10 -14    2.75    0.98
  18  10 -14    2.59    1.03
 -18 -10  15    9.91    1.70
 -18  10  15    9.87    1.97
  18  10 -15    8.02    1.50
  18  10 -15   12.85    1.67
  18 -10 -15    5.79    1.89
 -18  10  16  211.18   14.30
  18  10 -16  198.35   13.31
  18  10 -16  184.58   13.10
  18 -10 -16  187.55   13.80
  18  10 -17    1.22    0.82
  18 -10 -17    0.25    0.42
  18  10 -18   76.23    5.78
  18  10 -19    3.46    0.88
  18  10 -20   99.16    7.06
  18  10 -21    1.05    0.59
  18  12  -4   42.52    3.22
  18  12  -5  482.55   30.85
  18  12  -6    9.36    1.13
  18  12  -7  176.20   11.66
  18  12  -8   10.03    1.19
  18  12  -9   65.05    4.86
  18 -12  -9   76.31    5.51
  18  12 -10   15.13    1.46
  18 -12 -10   12.34    1.77
 -19  -1 -16    8.10    1.24
 -19  -1 -15   28.88    2.89
 -19  -1 -14  459.73   29.25
 -19   1 -14  449.63   29.30
 -19  -1 -14  424.77   29.28
 -19  -1 -13    1.90    1.40
 -19  -1 -13    2.86    1.35
 -19   1 -13    4.80    1.58
 -19  -1 -12  573.67   36.02
 -19  -1 -12  512.85   35.95
 -19  -1 -11    4.16    1.96
 -19  -1 -11    3.45    1.54
 -19  -1 -10  209.00   15.89
 -19  -1 -10  233.11   15.86
 -19  -1 -10  221.12   14.99
 -19  -1 -10  189.34   15.57
 -19  -1  -9    3.93    1.69
 -19  -1  -9    8.32    2.29
 -19   1  -9    3.48    1.66
 -19  -1  -9    4.13    1.58
 -19  -1  -9    2.29    1.17
 -19  -1  -8  231.95   15.82
 -19   1  -8  188.58   15.19
 -19  -1  -8  199.50   14.54
 -19  -1  -8  192.77   15.28
 -19  -1  -7   98.33    8.45
 -19  -1  -7   92.33    9.00
 -19   1  -6  537.22   37.45
 -19  -1  -6  546.81   44.69
 -19   1  -6  574.26   45.66
 -19   1  -6  558.30   36.74
 -19  -1  -6  581.56   36.98
  19  -1   6  484.45   45.37
  19   1   6  514.03   44.36
 -19  -1  -6  544.38   37.56
  19  -1   5   11.80    5.34
  19   1   5   16.47    6.05
 -19  -1  -5   31.09    4.18
 -19   1  -5   15.95    3.28
 -19  -1  -5   39.20    3.95
 -19   1  -5   17.38    2.98
 -19  -1  -5   48.78    9.30
 -19   1  -5   10.60    5.43
  19  -1   4   87.09   13.66
 -19   1  -4   76.14    7.61
 -19   1  -4   93.63    7.30
 -19   1  -4   91.79    7.41
 -19  -1  -4   76.17    7.29
 -19  -1  -4   95.48   13.52
 -19   1  -4   93.38   13.59
 -19  -1  -4   74.89    7.74
  19  -1   3    9.34    5.53
 -19  -1  -3   12.18    2.96
 -19   1  -3   20.33    3.19
 -19   1  -3   11.89    2.42
 -19  -1  -3   16.19    5.62
 -19   1  -3   23.30    6.84
 -19   1  -2  292.51   21.86
 -19   1  -2  313.39   21.58
 -19  -1  -2  322.42   22.40
 -19   1  -1  676.57   41.02
 -19  -1  -1  483.80   46.35
 -19  -1  -1  644.69   40.69
  19  -1   1  573.16   48.97
 -19  -1  -1  550.18   40.81
 -19   1   0 1276.39   87.99
 -19  -1   0 1395.57   96.47
 -19  -1   0 1443.90   88.18
  19  -1   0 1256.39   96.75
 -19  -1   0 1404.51   88.70
 -19  -1   1  121.39   15.77
 -19   1   1  144.44   10.34
 -19  -1   1  142.71   10.48
  19  -1  -1  133.44   17.30
 -19  -1   1   98.48   10.27
 -19  -1   2  199.57   14.52
 -19  -1   2  191.40   21.01
 -19   1   2  191.56   14.16
 -19  -1   2  188.53   14.32
  19  -1  -2  160.37   20.39
 -19  -1   2  202.24   15.08
 -19  -1   3   80.19    6.89
 -19  -1   3   89.96   13.18
 -19   1   3   62.87    6.30
 -19  -1   3   71.78    6.62
 -19  -1   3   81.91    7.46
  19  -1  -3   74.93   12.49
 -19  -1   4  814.30   55.63
 -19  -1   4  821.70   55.72
 -19  -1   4  790.76   63.53
 -19   1   4  890.62   55.55
 -19  -1   4  879.14   55.64
  19  -1  -4  871.37   65.73
 -19  -1   4  851.99   56.39
 -19  -1   5    5.05    2.06
 -19  -1   5    3.19    1.95
 -19  -1   5    6.59    5.15
 -19   1   5   17.65    2.51
 -19  -1   5    4.35    1.77
  19  -1  -5   19.24    6.90
 -19  -1   5    1.69    2.16
 -19  -1   6 1796.65  117.60
 -19  -1   6 1835.75  117.87
 -19  -1   6 1769.23  127.42
 -19   1   6 1812.11  117.35
 -19  -1   6 1926.24  117.56
 -19  -1   7   43.08    4.97
 -19  -1   7   44.64    5.24
 -19  -1   7   40.06    9.30
 -19  -1   7   40.41    4.76
 -19  -1   8  927.48   59.52
 -19   1   8  889.24   58.94
 -19  -1   8  922.34   59.87
 -19  -1   8  786.83   68.18
 -19   1   8  942.55   59.26
 -19  -1   8  912.55   59.21
 -19  -1   9    3.17    1.49
 -19   1   9    2.82    1.22
 -19  -1   9    7.50    1.96
 -19  -1   9    7.46    4.61
 -19  -1   9    6.24    1.67
  19  -1  -9    5.00    2.27
 -19  -1  10  219.88   15.85
 -19   1  10  231.10   15.46
 -19  -1  10  211.86   16.38
 -19  -1  10  166.62   22.51
 -19  -1  10  212.06   15.48
  19  -1 -10  234.77   17.19
 -19  -1  11    7.85    1.94
 -19   1  11    8.66    1.73
 -19  -1  11    8.76    2.52
 -19  -1  11    7.62    5.59
 -19  -1  11   16.15    2.25
  19  -1 -11    9.33    2.69
 -19   1  12  933.39   61.16
 -19  -1  12  984.85   70.38
  19  -1 -12  981.35   63.14
 -19  -1  13  292.97   29.42
  19  -1 -13  346.34   24.25
 -19  -1  14  326.55   31.52
  19  -1 -14  370.59   25.89
  19  -1 -15    3.05    1.90
 -19  -1  15   12.12    5.79
 -19  -1  16  128.18   16.44
  19  -1 -16  137.90   11.58
 -19  -1  17   10.30    4.82
  19  -1 -17    2.44    1.97
 -19  -1  18  434.61   36.81
  19  -1 -18  415.59   29.60
 -19  -1  19  305.85   29.52
  19  -1 -19  316.76   22.98
 -19  -1  20  205.59   22.72
  19   1 -20  175.50   21.75
  19  -1 -20  197.86   22.43
  19  -1 -20  246.17   17.15
 -19  -1  21  114.56   14.85
 -19   1  21  108.36   15.17
  19  -1 -21   92.08    8.65
  19   1 -21   91.27   13.52
  19  -1 -21   65.90   12.13
 -19  -1  22  102.85   15.01
 -19   1  22   93.25   15.37
  19  -1 -22  129.95   10.31
  19   1 -22  105.09   14.89
  19  -1 -22  101.42   15.09
  19  -1 -23   43.40    5.27
  19  -1 -24  419.15   29.26
  19  -1 -25    4.53    2.02
  19  -1 -26  416.39   28.66
  19  -1 -27   40.25    4.54
  19  -1 -28   39.47    4.29
  19  -1 -29   44.25    4.49
  19  -1 -30    0.59    1.25
  19  -1 -31    5.39    1.36
  19  -1 -32    0.40    0.83
  19   1 -32    1.67    0.82
  19  -1 -32    2.65    0.95
  19   1 -32    2.78    0.93
 -19  -3 -14    0.34    0.72
 -19   3 -14    0.45    0.93
 -19  -3 -13  125.23    9.66
 -19   3 -13  151.92   10.25
 -19  -3 -12  114.03    8.18
 -19   3 -12  102.17    8.18
 -19  -3 -12  116.94    7.84
 -19  -3 -12  110.13    8.30
 -19   3 -12   92.47    8.42
 -19  -3 -11   48.97    5.01
 -19  -3 -11   59.80    4.95
 -19  -3 -11   49.20    4.48
 -19   3 -11   56.14    5.49
 -19  -3 -10   37.96    4.51
 -19  -3 -10   41.77    4.21
 -19   3 -10   44.05    4.43
 -19  -3 -10   40.45    4.00
 -19  -3 -10   42.57    4.45
 -19   3 -10   49.50    5.11
 -19  -3  -9  342.67   24.31
 -19  -3  -9  346.72   23.81
 -19   3  -9  362.51   24.09
 -19  -3  -9  348.40   23.56
 -19  -3  -9  313.32   23.86
 -19   3  -9  391.83   25.02
 -19  -3  -8   61.21    6.54
 -19  -3  -8   91.31    6.73
 -19   3  -8   66.33    6.45
 -19  -3  -8   70.89    6.21
 -19  -3  -8   70.11    6.14
 -19  -3  -8   74.69    6.65
 -19   3  -8   49.11    6.61
 -19  -3  -7  858.69   56.02
 -19   3  -7  915.98   55.32
 -19  -3  -7  788.99   55.18
 -19  -3  -7  827.36   55.24
 -19  -3  -7  780.37   55.57
 -19   3  -7  959.74   56.89
 -19  -3  -6  454.25   30.14
 -19   3  -6  418.21   29.22
 -19  -3  -6  449.92   29.43
 -19  -3  -6  459.13   29.50
 -19  -3  -6  392.41   29.57
 -19   3  -6  421.60   30.41
 -19  -3  -5  589.73   39.07
 -19   3  -5  585.53   38.55
 -19   3  -5  646.73   38.61
 -19  -3  -5  564.67   44.78
 -19   3  -5  542.66   45.41
 -19  -3  -5  581.26   38.30
 -19  -3  -5  573.73   38.40
  19  -3   5  566.17   49.02
  19   3   5  479.38   44.16
 -19  -3  -5  487.32   38.41
 -19   3  -5  616.58   39.68
  19  -3   4    7.90    4.93
  19   3   4   16.67    5.14
 -19  -3  -4   12.43    2.79
 -19   3  -4   12.21    3.33
 -19   3  -4   13.68    2.57
 -19   3  -4   13.45    2.53
 -19  -3  -4   14.88    2.66
 -19  -3  -4   10.59    4.45
 -19   3  -4    5.82    4.01
  19  -3   3  152.51   20.98
 -19   3  -3  177.17   13.96
 -19   3  -3  216.47   14.38
 -19  -3  -3  161.02   19.09
 -19   3  -3  166.29   19.71
 -19  -3  -3  212.33   14.19
  19   3   3  150.30   18.69
 -19  -3  -3  174.16   14.35
 -19   3  -3  190.56   15.13
  19  -3   2   18.32    6.65
  19   3   2   24.06    6.28
 -19  -3  -2   33.46    4.17
 -19   3  -2   14.71    3.44
 -19   3  -2   15.61    2.84
 -19  -3  -2   32.85    3.59
 -19  -3  -2   29.97    6.98
 -19   3  -2   17.62    6.22
 -19  -3  -2   29.04    3.80
 -19   3  -1  834.54   58.29
 -19  -3  -1  967.29   66.26
 -19   3  -1  973.75   67.28
 -19  -3  -1  899.09   58.30
 -19  -3  -1  931.79   58.93
  19  -3   1  840.00   68.79
  19   3   1  855.96   65.53
 -19  -3  -1  876.99   59.02
 -19   3  -1  954.64   59.90
  19  -3   0    7.74    4.31
  19   3   0   23.91    6.30
 -19  -3   0   13.03    3.02
 -19   3   0    4.41    2.23
 -19   3   0    6.80    1.91
 -19  -3   0   12.14    2.30
 -19  -3   0   19.32    5.84
 -19   3   0    5.92    4.04
 -19  -3   0   16.34    2.87
 -19   3   1  840.89   56.88
 -19  -3   1  882.95   64.33
 -19   3   1  916.94   65.80
 -19  -3   1  881.22   56.82
 -19  -3   1  860.76   57.54
  19  -3  -1  885.44   68.09
  19   3  -1  883.30   64.60
 -19  -3   1  886.28   57.83
 -19   3   1  914.66   58.51
 -19   3   2   19.21    3.67
 -19   3   2   13.54    2.44
 -19  -3   2   19.66    5.67
 -19   3   2   10.23    4.95
 -19  -3   2   27.86    3.03
 -19  -3   2   29.46    3.79
  19  -3  -2   25.25    7.63
  19   3  -2   25.52    6.52
 -19  -3   2   23.27    3.72
 -19   3   3    6.37    1.59
 -19  -3   3    1.81    3.68
 -19  -3   3    2.73    1.48
  19  -3  -3    2.51    3.60
  19   3  -3    5.48    3.39
 -19  -3   3    2.57    1.50
 -19   3   3    7.37    2.50
 -19  -3   4  492.30   38.50
 -19   3   4  505.33   40.14
 -19   3   4  432.94   30.39
 -19  -3   4  485.27   31.32
 -19   3   4  457.43   32.07
 -19  -3   5  478.43   32.65
 -19   3   5  471.59   32.78
 -19  -3   5  477.85   32.37
 -19  -3   5  456.30   39.16
 -19   3   5  457.89   40.72
 -19  -3   5  509.02   32.66
 -19  -3   6   77.06    6.95
 -19   3   6   63.33    6.81
 -19  -3   6   83.39    6.85
 -19  -3   6   96.10   12.91
 -19   3   6   51.87   11.83
 -19  -3   6   77.99    6.87
 -19  -3   7  379.36   26.77
 -19   3   7  405.82   27.31
 -19  -3   7  377.98   26.61
 -19  -3   7  415.36   35.02
 -19   3   7  412.00   36.81
 -19  -3   7  393.06   26.63
 -19  -3   8  456.60   31.45
 -19   3   8  438.34   31.77
 -19  -3   8  460.93   31.36
 -19  -3   8  425.97   38.68
 -19   3   8  475.78   41.90
 -19  -3   8  455.45   31.11
  19  -3  -8  497.19   32.53
  19   3  -8  496.87   31.87
 -19   3   9   87.02    7.85
 -19  -3   9   87.86    7.26
 -19  -3   9   67.35   12.31
 -19   3   9   67.64   13.63
 -19  -3   9   73.66    6.73
  19  -3  -9   81.47    7.89
  19   3  -9   84.51    7.44
 -19  -3  10   33.66    3.75
 -19   3  10   31.68    3.99
 -19  -3  10   20.23    7.12
 -19   3  10   14.12    8.23
 -19  -3  10   21.03    2.90
  19  -3 -10   20.06    3.56
  19   3 -10   24.59    3.42
 -19   3  11  754.69   49.89
 -19  -3  11  756.88   49.14
 -19   3  11  643.49   59.61
 -19  -3  11  614.74   56.99
  19  -3 -11  749.52   49.70
  19   3 -11  762.13   49.29
 -19  -3  12   96.46    8.20
 -19   3  12   98.21    8.91
 -19   3  12   54.03   13.20
 -19  -3  12   66.03   13.02
  19  -3 -12   87.23    8.40
  19   3 -12  100.58    8.32
 -19  -3  13  296.06   20.01
 -19   3  13  270.52   20.52
 -19   3  13  183.06   26.67
 -19  -3  13  205.18   26.43
  19  -3 -13  290.34   20.31
  19   3 -13  285.81   19.93
 -19  -3  14   15.00    5.59
  19  -3 -14    3.81    2.02
  19   3 -14    0.97    1.46
 -19   3  14   12.20    5.34
  19  -3 -15    4.87    2.05
  19   3 -15    8.33    2.11
 -19  -3  15    7.60    4.74
 -19   3  15   14.88    6.50
 -19  -3  16   -1.93    3.19
 -19   3  16    7.56    5.11
  19  -3 -16    3.75    2.08
  19   3 -16    4.92    2.16
 -19  -3  17 1024.83   72.15
 -19   3  17  980.08   74.56
  19  -3 -17  939.97   64.18
  19   3 -17 1004.00   64.15
 -19  -3  18  414.43   33.25
 -19   3  18  300.59   32.95
  19  -3 -18  315.54   24.77
  19   3 -18  400.02   25.24
 -19  -3  19 1227.07   78.83
 -19   3  19 1116.64   81.12
  19   3 -19  964.12   75.36
  19  -3 -19 1006.20   76.38
  19  -3 -19 1072.77   69.74
  19   3 -19 1063.38   69.57
 -19  -3  20    4.00    4.06
 -19   3  20    7.88    5.33
  19   3 -20    5.21    3.53
  19  -3 -20    1.86    4.36
  19  -3 -20    4.63    2.10
  19   3 -20    4.89    2.19
  19   3 -21  222.69   16.40
  19   3 -21  195.06   21.49
  19  -3 -21  191.46   21.61
  19  -3 -21  242.51   17.10
  19   3 -21  241.64   16.93
  19   3 -22    6.07    1.74
  19  -3 -22    4.38    1.92
  19   3 -22    6.51    1.92
  19   3 -23   10.41    2.21
  19  -3 -23   18.58    2.94
  19   3 -23   19.06    2.98
  19   3 -24   88.41    7.90
  19  -3 -24   99.57    8.41
  19   3 -24  114.16    8.56
  19   3 -25    8.74    1.83
  19  -3 -25   11.69    2.10
  19   3 -25   11.44    2.21
  19  -3 -26   11.36    2.23
  19   3 -26    3.78    1.78
  19  -3 -27   66.18    6.12
  19   3 -27   77.61    6.20
  19  -3 -28   12.02    2.07
  19   3 -28   16.04    2.15
  19  -3 -29   24.19    2.83
  19   3 -29   26.25    2.77
  19  -3 -30    0.82    0.90
  19   3 -30   -0.18    0.96
 -19  -5 -12  172.11   11.50
 -19  -5 -11  173.42   11.86
 -19  -5 -10    3.23    1.36
 -19  -5 -10    2.67    1.14
 -19   5 -10    0.81    0.81
 -19  -5  -9    4.09    1.38
 -19   5  -9    2.08    0.98
 -19  -5  -9    2.05    1.13
 -19  -5  -9    4.72    1.25
 -19  -5  -9   -0.73    1.36
 -19   5  -9   -0.65    1.76
 -19  -5  -8    7.57    1.89
 -19   5  -8   12.46    2.22
 -19   5  -8    9.90    1.76
 -19  -5  -8    9.01    1.78
 -19  -5  -8    6.88    1.66
 -19  -5  -8    5.72    1.61
 -19   5  -8    5.99    1.85
 -19  -5  -7  250.94   18.28
 -19   5  -7  292.38   18.59
 -19  -5  -7  263.56   17.67
 -19   5  -7  245.30   17.70
 -19  -5  -7  254.31   17.78
 -19  -5  -7  259.85   17.96
 -19  -5  -7  246.88   17.84
 -19   5  -7  255.56   18.34
 -19  -5  -6   58.73    5.41
 -19   5  -6   60.75    5.56
 -19  -5  -6   49.13    4.60
 -19   5  -6   57.09    4.88
 -19  -5  -6   42.21    4.51
 -19  -5  -6   39.52    4.59
 -19  -5  -6   40.50    4.60
 -19   5  -6   61.06    5.59
 -19  -5  -5  174.17   12.54
 -19   5  -5  168.43   12.49
 -19  -5  -5  165.29   11.68
 -19   5  -5  152.51   11.72
 -19  -5  -5  148.18   11.56
 -19  -5  -5  149.53   11.86
 -19   5  -5  159.75   12.44
 -19   5  -4    0.96    1.68
 -19  -5  -4    1.69    1.51
 -19  -5  -4    0.82    1.43
 -19   5  -4   -0.49    1.73
 -19   5  -3  170.62   12.25
 -19  -5  -3  137.51   11.12
 -19  -5  -3  153.34   11.76
 -19  -5  -3  153.15   11.72
 -19   5  -3  150.77   12.07
 -19   5  -2  248.36   15.44
 -19  -5  -2  177.30   13.95
 -19  -5  -2  174.10   14.42
 -19  -5  -2  178.66   14.41
 -19   5  -2  247.85   15.58
 -19   5  -1 2332.97  142.46
 -19   5  -1 1928.02  147.00
 -19  -5  -1 2192.95  141.37
 -19  -5  -1 2264.00  142.22
 -19   5  -1 2257.44  142.46
 -19  -5   0   49.29    6.06
 -19   5   0  114.63    7.71
 -19   5   0  131.92   13.14
 -19  -5   0   64.36    5.78
 -19  -5   0   59.26    6.33
 -19  -5   1 2853.00  185.29
 -19   5   1 2726.49  190.78
 -19  -5   1 3045.18  185.42
 -19  -5   2  197.50   15.98
 -19  -5   2  226.85   16.22
 -19  -5   3  256.14   19.26
 -19   5   3  267.14   24.63
 -19  -5   3  285.67   19.45
 -19  -5   4  259.44   18.43
 -19  -5   4  265.95   23.30
 -19   5   4  253.60   23.85
 -19  -5   4  280.92   18.52
  19  -5  -4  228.02   18.37
  19   5  -4  251.99   18.05
 -19  -5   5  301.26   21.54
 -19  -5   5  332.88   26.89
 -19   5   5  305.45   27.41
 -19  -5   5  332.11   21.55
  19  -5  -5  254.01   21.30
  19   5  -5  329.26   21.34
 -19  -5   6  169.06   12.70
 -19  -5   6  168.97   17.74
 -19   5   6  147.70   18.22
 -19  -5   6  169.29   12.44
  19  -5  -6  167.80   12.77
  19   5  -6  155.10   12.21
 -19  -5   7  286.76   19.15
 -19  -5   7  273.79   24.85
 -19   5   7  245.60   25.31
 -19   5   7  231.15   18.60
 -19  -5   7  275.23   18.68
  19  -5  -7  249.78   18.93
  19   5  -7  285.61   18.76
 -19  -5   8  183.09   14.69
 -19   5   8  186.80   14.57
 -19  -5   8  220.67   14.43
 -19  -5   8  213.20   20.84
 -19   5   8  205.29   22.35
 -19   5   8  212.87   14.95
 -19  -5   8  205.21   14.47
  19  -5  -8  192.22   14.82
  19   5  -8  189.23   14.43
 -19   5   9  136.09   10.73
 -19  -5   9  158.33   10.56
 -19   5   9  119.69   10.66
 -19  -5   9  151.10   17.05
 -19  -5   9  141.48   10.39
  19  -5  -9  128.71   10.75
  19   5  -9  138.00   10.52
 -19   5  10  152.41   11.26
 -19  -5  10  138.74   10.59
 -19   5  10  159.10   11.51
 -19  -5  10  108.35   16.09
 -19   5  10  103.82   17.17
  19  -5 -10  155.41   11.26
  19   5 -10  123.75   10.55
 -19   5  11 2275.18  146.93
 -19  -5  11 2574.76  146.61
 -19  -5  11 2438.92  155.74
 -19   5  11 2284.07  157.14
 -19   5  11 2060.28  146.87
  19  -5 -11 2198.42  146.68
  19   5 -11 2351.31  146.55
 -19   5  12  189.57   13.08
 -19  -5  12  154.69   12.07
 -19   5  12  176.98   21.26
 -19   5  12  152.41   12.74
  19  -5 -12  180.20   12.65
  19   5 -12  147.19   12.05
 -19   5  13 1824.48  112.71
 -19  -5  13 1982.83  112.17
 -19   5  13 1430.29  121.13
 -19   5  13 1597.36  112.52
  19  -5 -13 1599.47  111.94
  19   5 -13 1824.64  111.98
 -19   5  14   33.07    4.31
 -19  -5  14   25.46    3.52
 -19   5  14   28.84    9.10
 -19   5  14   27.06    4.03
  19  -5 -14   26.01    3.63
  19   5 -14   27.06    3.48
 -19   5  15  248.89   19.13
 -19  -5  15  300.28   18.83
 -19   5  15  253.65   19.27
  19  -5 -15  241.75   18.41
  19   5 -15  275.12   18.47
 -19   5  16    2.86    2.03
 -19  -5  16    3.83    1.75
 -19   5  16    2.80    4.02
  19   5 -16    2.61    2.17
  19  -5 -16    4.82    1.62
  19   5 -16   10.42    1.97
 -19   5  17  114.05    9.70
 -19  -5  17  112.25    8.93
  19  -5 -17  100.14    8.64
  19   5 -17  113.67    8.67
 -19  -5  18  133.02   10.29
 -19   5  18  129.58   10.98
  19  -5 -18  125.70    9.98
  19   5 -18  121.80    9.76
  19  -5 -19  366.46   25.52
  19   5 -19  382.36   25.44
  19   5 -20    1.27    1.32
  19  -5 -20    2.89    1.56
  19   5 -20    3.41    1.58
  19   5 -21    4.12    1.55
  19  -5 -21    8.21    1.88
  19   5 -21    3.53    1.36
  19   5 -22    1.98    1.40
  19  -5 -22    0.95    1.15
  19   5 -22    3.87    1.40
  19   5 -23  251.34   16.73
  19  -5 -23  211.66   16.02
  19   5 -23  241.21   16.08
  19   5 -24  206.64   14.57
  19  -5 -24  183.51   13.95
  19   5 -24  218.06   14.06
  19   5 -25  399.90   26.66
  19  -5 -25  370.40   26.11
  19   5 -25  422.43   26.13
  19   5 -26   63.13    3.66
  19   5 -26   -0.18    0.42
  19   5 -27   58.12    3.23
  19   5 -27   -0.14    0.11
  19   5 -28   38.59    3.34
 -19  -7 -10    5.91    0.99
 -19  -7  -9   90.28    6.59
 -19   7  -8 1083.12   61.28
 -19  -7  -8  894.17   60.32
 -19  -7  -8  932.64   60.56
 -19  -7  -7  618.12   41.08
 -19   7  -7  647.96   41.78
 -19  -7  -7  641.33   40.86
 -19  -7  -6  802.65   52.92
 -19  -7  -6  771.08   52.51
 -19  -7  -5  251.00   16.29
 -19  -7  -5  223.45   15.67
 -19  -7  -5  237.16   16.15
 -19   7  -5  213.93   16.64
 -19  -7  -4  340.19   22.56
 -19   7  -4  370.41   23.43
 -19  -7  -4  310.99   21.87
 -19  -7  -4  323.44   22.39
 -19  -7  -3   59.59    4.79
 -19  -7  -3   65.95    5.44
 -19   7  -2   40.40    4.50
 -19  -7  -2   30.05    3.23
 -19  -7  -2   37.86    3.90
 -19   7  -1  125.82   10.30
 -19  -7  -1  122.74    9.68
 -19  -7   0  196.31   14.34
 -19  -7   1   38.58    4.18
 -19  -7   1   37.60    4.23
 -19  -7   2  210.02   15.83
 -19   7   2  226.89   16.44
 -19  -7   2  227.42   15.96
 -19  -7   3  141.10   10.55
 -19   7   3  115.71   10.54
 -19  -7   3  144.53   10.51
 -19  -7   4  777.86   52.20
 -19   7   4  831.93   52.68
 -19  -7   4  790.32   52.04
 -19  -7   5  475.92   30.02
 -19   7   5  382.21   29.76
 -19  -7   5  464.54   29.65
 -19  -7   6 2491.91  159.92
 -19   7   6 2579.22  160.28
 -19  -7   6 2488.52  159.53
 -19  -7   7  505.66   32.74
 -19  -7   7  532.32   32.30
 -19  -7   8 1025.69   63.19
 -19   7   8  929.63   63.58
 -19  -7   8  955.35   62.43
 -19  -7   9   10.99    2.15
 -19   7   9    4.31    1.78
 -19   7  10  181.68   14.21
 -19   7  11   45.70    5.42
 -19   7  12   75.54    7.50
  19   7 -12   73.33    6.27
 -19   7  13  160.52   14.68
  19   7 -13  213.60   13.91
 -19   7  14   91.93    8.46
  19   7 -14   82.56    6.95
 -19   7  15   21.17    3.78
  19   7 -15   21.85    2.76
 -19   7  16  418.68   32.53
  19   7 -16  500.29   31.28
 -19   7  17  102.97   10.28
  19   7 -17  130.79    9.25
 -19   7  18  478.16   33.29
 -19   7  19  219.63   18.44
  19   7 -19  269.80   17.66
 -19   7  20  744.72   52.31
  19   7 -20  814.55   51.29
 -19   7  21   55.78    6.06
  19   7 -21   54.67    5.12
 -19   7  22    1.50    1.65
  19   7 -22   -0.61    1.66
 -19   7  23   -0.45    1.58
  19   7 -23   -0.56    1.32
 -19   7  24   16.59    2.85
  19   7 -24   23.55    2.60
  19   7 -25    6.53    1.36
  19   7 -26   32.60    2.96
 -19   9  -6  141.11    9.29
 -19  -9  -6  116.92    8.59
 -19   9  -5    2.63    1.36
 -19  -9  -5    4.28    0.94
 -19   9  -4    7.26    1.71
 -19  -9  -4    1.74    0.88
 -19  -9  -3    5.13    1.19
 -19  -9  -2  664.91   42.99
 -19   9  -1  520.15   31.78
 -19  -9  -1  441.46   30.66
 -19   9   0 1198.72   77.62
 -19  -9   0 1205.42   76.83
 -19   9   1  145.55   10.22
 -19  -9   1  112.84    9.07
 -19   9   2  536.97   36.73
 -19  -9   2  560.89   36.05
 -19   9   3  123.15    9.61
 -19  -9   3  116.48    8.82
 -19  -9   4   40.71    4.13
 -19   9   4   52.41    5.00
 -19  -9   4   46.46    4.17
 -19  -9   5    1.72    1.15
 -19   9   5    2.00    1.37
 -19  -9   5    2.70    1.08
 -19  -9   6  392.79   25.12
 -19   9   6  371.21   25.57
 -19  -9   6  361.59   24.65
 -19  -9   7   11.16    2.04
 -19   9   7   18.77    2.68
 -19  -9   8   33.09    3.72
 -19   9   8   45.28    4.39
 -19  -9   9  229.49   15.61
 -19   9   9  213.07   15.73
 -19  -9  10  715.13   44.81
 -19   9  10  615.88   44.70
 -19   9  10  697.86   45.74
  19   9 -10  718.72   44.52
 -19  -9  11   60.71    5.49
 -19   9  11   60.49    5.52
  19   9 -11   59.65    5.20
 -19  -9  12 1807.99  111.25
 -19   9  12 1728.24  112.15
 -19   9  12 1641.38  110.98
  19   9 -12 1805.09  110.88
 -19  -9  13  424.67   28.83
 -19   9  13  503.68   30.18
  19   9 -13  409.81   28.40
 -19   9  14  785.79   51.57
  19   9 -14  777.23   50.20
  19   9 -15   10.17    1.72
  19   9 -15    6.83    1.46
 -19   9  16   79.11    6.96
  19   9 -16   66.73    5.73
  19   9 -16   69.31    5.55
  19  -9 -16   73.56    6.48
 -19   9  17    0.45    1.28
  19   9 -17   -0.20    0.84
  19  -9 -17    0.32    0.54
 -19   9  18    5.92    1.89
 -19   9  19    5.11    1.75
  19   9 -21   10.81    1.56
  19   9 -22  493.09   31.86
  19   9 -23   28.29    2.52
 -19  11   1  250.65   16.86
 -19  11   2   -0.21    0.81
 -19  11   3   57.08    4.75
 -19  11   4  300.25   22.19
  19  11  -4  365.33   21.96
 -19  11   5  819.14   55.08
  19  11  -5  892.70   54.81
 -19  11   6  446.44   32.70
  19  11  -6  561.97   32.63
 -19  11   7  574.89   40.55
  19  11  -7  688.27   40.52
  19  11  -8  327.10   21.35
  19  11  -9   -0.11    0.20
  19  11  -9  133.35    3.82
  19  11 -10    1.48    0.52
  19  11 -10    1.91    0.67
  19  11 -11  188.54   13.63
  19  11 -11  238.27   13.93
  19  11 -12   71.22    5.53
  19  11 -12   88.01    5.74
  19 -11 -12   81.37    6.41
  19  11 -13   94.34    6.86
  19  11 -13  104.68    6.96
  19 -11 -13  103.55    7.60
  19  11 -14    2.85    0.67
 -20   0 -15    0.45    0.67
 -20   0 -14   26.62    2.79
 -20   0 -13    0.54    1.17
 -20   0 -13    1.67    1.10
 -20   0 -12  561.88   34.40
 -20   0 -12  480.99   34.35
 -20   0 -11   10.60    2.15
 -20   0 -11    9.48    1.98
 -20   0 -10   71.98    6.32
 -20   0 -10   63.48    6.31
 -20   0  -9    3.28    1.70
 -20   0  -9    2.12    1.54
 -20   0  -8    4.02    2.09
 -20   0  -8    2.76    1.91
 -20   0  -7    2.12    1.64
 -20   0  -7    2.62    1.68
 -20   0  -7   -1.43    1.32
 -20   0  -6  251.96   17.90
 -20   0  -6  232.99   16.90
 -20   0  -6  229.09   17.69
 -20   0  -5   -0.57    1.87
 -20   0  -5    2.17    1.80
 -20   0  -5    0.41    1.21
  20   0   4   10.85    5.23
 -20   0  -4   18.32    3.54
 -20   0  -4   20.08    3.50
 -20   0  -4   24.08    3.27
 -20   0  -4   22.76    6.52
  20   0   3   -2.17    5.69
 -20   0  -3    6.90    2.44
 -20   0  -3    9.17    2.46
 -20   0  -3    3.04    1.71
 -20   0  -3    2.08    3.45
 -20   0  -2 1412.15   86.85
 -20   0  -2 1328.01   94.81
  20   0   2 1195.63   94.12
 -20   0  -2 1301.01   86.83
 -20   0  -1    6.95    2.78
 -20   0  -1   17.40    3.17
 -20   0  -1    8.39    5.21
 -20   0   0 1675.13  111.76
 -20   0   0 1631.60  102.40
  20   0   0 1527.93  111.11
 -20   0   0 1540.12  102.99
  20   0  -1   13.20    5.79
 -20   0   1   15.77    3.48
 -20   0   1   10.70    5.35
 -20   0   1    8.44    2.39
 -20   0   2 1988.07  131.02
 -20   0   2 1911.39  121.14
  20   0  -2 1771.89  129.83
 -20   0   2 1878.31  121.91
 -20   0   3    0.59    2.46
 -20   0   3    2.21    3.18
 -20   0   3    7.77    2.03
  20   0  -3    2.23    3.70
 -20   0   4   11.41    5.80
 -20   0   4   21.99    3.05
  20   0  -4   18.19    6.08
 -20   0   4   21.62    3.60
 -20   0   5    3.30    1.41
 -20   0   5    4.42    1.47
 -20   0   5    0.41    1.28
 -20   0   5   -0.61    2.14
 -20   0   6  194.43   14.52
 -20   0   6  197.18   15.06
 -20   0   6  206.29   22.99
 -20   0   6  201.38   14.59
 -20   0   7    4.38    1.66
 -20   0   7    5.05    1.73
 -20   0   7    2.75    1.46
 -20   0   8   22.69    3.24
 -20   0   8   30.38    3.83
 -20   0   8   18.14    6.96
 -20   0   8   26.00    3.35
 -20   0   9    3.08    1.52
 -20   0   9    6.80    2.05
 -20   0   9    5.36    4.96
 -20   0   9    3.35    1.40
  20   0  -9    6.85    2.54
 -20   0  10  869.55   57.39
 -20   0  10  863.88   58.30
 -20   0  10  795.07   68.26
 -20   0  10  888.36   57.35
  20   0 -10  942.25   59.05
 -20   0  11   13.56    2.49
 -20   0  11   15.41    3.02
 -20   0  11    5.60    6.18
  20   0 -11   12.05    2.85
 -20   0  12 4290.14  268.02
 -20   0  12 4241.70  269.18
 -20   0  12 3432.26  279.09
  20   0 -12 4381.94  269.65
 -20   0  13    2.22    5.52
 -20   0  13    6.65    2.02
  20   0 -13    5.79    2.63
 -20   0  14 2377.49  151.11
 -20   0  14 2478.81  161.82
  20   0 -14 2353.00  152.63
 -20   0  15   13.01    2.28
 -20   0  15    4.50    4.60
  20   0 -15    3.84    2.81
 -20   0  16 1230.16   79.79
 -20   0  16 1305.53   90.39
  20   0 -16 1247.19   81.42
  20   0 -17   -0.64    2.18
 -20   0  17   -2.29    4.23
 -20   0  18  184.35   20.99
  20   0 -18  173.46   14.25
 -20   0  19   -2.31    3.31
  20   0 -19    2.53    2.22
 -20   0  20    9.24    5.42
  20   0 -20    4.40    4.48
  20   0 -20    7.49    2.62
 -20   0  21   -2.30    3.80
  20   0 -21    2.19    2.56
  20   0 -21   -0.61    1.97
  20   0 -22   92.94    8.72
  20   0 -23    1.15    1.85
  20   0 -24 1896.28  121.97
  20   0 -25    6.12    2.45
  20   0 -26 1611.81  103.65
  20   0 -27    5.91    1.75
  20   0 -28   64.51    5.95
  20   0 -29    0.66    1.03
  20   0 -30   13.04    2.14
  20   0 -31   -0.69    1.21
 -20  -2 -14    7.66    1.22
 -20   2 -14    4.56    1.15
 -20  -2 -13   -0.64    0.97
 -20   2 -13    0.26    1.04
 -20  -2 -12  107.69    7.82
 -20   2 -12  107.66    7.91
 -20  -2 -12   88.35    7.73
 -20   2 -12  113.12    8.30
 -20  -2 -11    3.82    1.40
 -20   2 -11    2.29    1.35
 -20  -2 -11    1.98    1.06
 -20   2 -11    2.49    1.19
 -20  -2 -10   99.50    8.48
 -20  -2 -10  107.57    8.25
 -20   2 -10  112.54    8.44
 -20  -2 -10   99.30    7.75
 -20  -2 -10   95.23    8.25
 -20   2 -10  109.25    8.84
 -20  -2  -9  108.63    9.67
 -20  -2  -9  115.34    9.39
 -20   2  -9  148.98   10.02
 -20  -2  -9  113.83    8.97
 -20  -2  -9  105.70    9.43
 -20   2  -9  144.65   10.49
 -20  -2  -8  407.46   28.40
 -20  -2  -8  421.20   28.03
 -20   2  -8  414.17   28.19
 -20  -2  -8  408.91   27.58
 -20  -2  -8  412.33   28.22
 -20   2  -8  400.71   28.60
 -20  -2  -7  154.87   12.95
 -20  -2  -7  157.88   12.29
 -20  -2  -7  149.44   12.73
 -20  -2  -6  838.85   50.99
 -20   2  -6  658.65   50.06
 -20  -2  -6  835.93   50.14
 -20  -2  -6  738.41   50.43
 -20   2  -6  758.76   51.03
 -20  -2  -5  353.12   26.59
 -20   2  -5  398.84   26.62
 -20   2  -5  435.53   26.08
 -20  -2  -5  359.80   26.03
 -20  -2  -5  305.71   26.14
 -20   2  -5  463.62   27.81
 -20  -2  -4  600.17   39.13
 -20   2  -4  508.23   38.36
 -20   2  -4  608.79   38.17
 -20  -2  -4  604.28   46.05
 -20   2  -4  543.24   45.88
 -20  -2  -4  617.97   38.57
  20  -2   4  507.65   47.25
  20   2   4  498.27   44.82
 -20  -2  -4  572.78   38.89
 -20   2  -4  573.15   39.35
  20  -2   3   -2.51    4.64
  20   2   3    5.80    4.24
 -20  -2  -3    3.74    2.18
 -20   2  -3    2.52    2.46
 -20   2  -3    5.84    1.95
 -20   2  -3    8.00    1.89
 -20  -2  -3    5.63    4.66
 -20   2  -3    2.06    4.82
 -20   2  -2  271.26   20.11
 -20  -2  -2  320.39   27.50
 -20   2  -2  267.24   27.10
  20  -2   2  269.37   28.84
  20   2   2  242.57   25.93
 -20  -2  -2  270.36   20.47
 -20   2  -2  327.91   21.53
  20  -2   1   78.26   13.82
  20   2   1   71.98   11.87
 -20   2  -1   91.91    7.87
 -20  -2  -1  108.08   13.67
 -20   2  -1   87.84   12.82
 -20  -2  -1   91.83    7.89
 -20  -2  -1   78.75    7.93
 -20   2  -1   86.75    8.43
 -20   2   0  275.31   20.41
 -20  -2   0  252.85   26.37
 -20   2   0  292.74   28.12
 -20  -2   0  344.63   21.09
  20  -2   0  285.86   29.34
  20   2   0  257.43   26.48
 -20  -2   0  268.69   20.83
 -20   2   0  293.77   21.54
 -20   2   1  275.17   18.59
 -20  -2   1  243.45   24.61
 -20   2   1  249.76   25.88
 -20  -2   1  271.86   18.89
  20  -2  -1  242.56   26.99
  20   2  -1  224.20   24.22
 -20  -2   1  237.11   18.89
 -20   2   1  267.09   19.61
 -20  -2   2    6.00    1.97
 -20   2   2    3.81    2.17
 -20  -2   2    3.38    1.84
 -20   2   2    4.13    1.69
 -20  -2   2    1.95    2.80
 -20   2   2    2.19    3.14
 -20  -2   2    3.30    1.71
  20  -2  -2    5.06    5.53
  20   2  -2   -1.95    3.96
 -20  -2   3   35.81    4.28
 -20   2   3   35.77    4.01
 -20  -2   3   19.83    6.27
 -20   2   3   40.26    8.93
 -20  -2   3   39.70    4.33
  20  -2  -3   25.43    7.87
  20   2  -3   19.71    6.24
 -20  -2   3   32.83    4.45
 -20   2   3   36.37    5.03
 -20  -2   4  372.42   25.92
 -20  -2   4  410.87   33.74
 -20   2   4  340.53   33.63
 -20   2   4  341.85   25.25
 -20  -2   4  426.50   26.14
  20   2  -4  386.64   33.23
 -20  -2   4  376.37   26.36
 -20   2   4  352.59   26.60
 -20  -2   5 1237.90   82.15
 -20   2   5 1364.21   82.62
 -20  -2   5 1189.13   81.89
 -20  -2   5 1158.82   89.76
 -20   2   5 1342.14   92.82
 -20  -2   5 1323.08   82.12
 -20  -2   6 1748.53  111.86
 -20   2   6 1604.80  111.97
 -20  -2   6 1700.17  111.73
 -20  -2   6 1924.40  121.95
 -20   2   6 1600.40  121.50
 -20  -2   6 1903.84  111.83
 -20  -2   7 1283.42   87.59
 -20   2   7 1450.42   88.36
 -20  -2   7 1324.22   87.68
 -20  -2   7 1315.16   96.71
 -20   2   7 1603.78  101.35
 -20  -2   7 1373.43   87.48
 -20  -2   8 1121.81   71.04
 -20   2   8 1025.82   71.33
 -20  -2   8 1052.65   70.95
 -20  -2   8 1084.77   80.57
 -20   2   8  974.30   81.19
 -20  -2   8 1085.06   70.64
  20  -2  -8 1090.93   72.12
  20   2  -8 1226.03   71.73
 -20  -2   9  694.21   48.01
 -20   2   9  738.62   48.75
 -20  -2   9  698.73   48.16
 -20  -2   9  749.88   58.06
 -20   2   9  822.90   61.29
 -20  -2   9  697.45   47.63
  20  -2  -9  780.25   49.50
  20   2  -9  786.68   48.79
 -20  -2  10    4.38    1.80
 -20   2  10   11.50    2.49
 -20  -2  10    3.84    1.80
 -20  -2  10    4.88    3.51
 -20   2  10    2.89    4.80
 -20  -2  10    3.97    1.43
  20  -2 -10    5.19    1.88
  20   2 -10    6.98    2.06
 -20  -2  11  160.22   12.90
 -20   2  11  189.39   14.12
 -20  -2  11  179.51   13.46
 -20   2  11  182.72   22.93
 -20  -2  11  178.48   21.26
 -20  -2  11  156.79   12.43
  20  -2 -11  202.57   14.50
  20   2 -11  162.64   13.40
 -20   2  12  621.86   43.11
 -20  -2  12  670.78   42.75
 -20   2  12  494.71   51.83
 -20  -2  12  529.28   50.96
  20  -2 -12  652.98   43.32
  20   2 -12  647.68   42.77
 -20  -2  13  110.30    9.57
 -20   2  13  109.35    9.98
 -20   2  13  121.91   18.83
 -20  -2  13   83.38   14.95
  20  -2 -13  132.06   10.47
  20   2 -13   99.11    9.32
 -20  -2  14  270.09   26.84
 -20   2  14  220.93   27.17
  20  -2 -14  318.70   21.27
  20   2 -14  268.83   20.41
 -20  -2  15  115.73   15.84
  20  -2 -15  125.32   10.92
  20   2 -15  139.58   10.93
 -20  -2  16  590.92   43.20
 -20   2  16  425.14   42.17
  20  -2 -16  453.93   34.27
  20   2 -16  540.07   34.44
 -20  -2  17 1403.07  103.33
 -20   2  17 1470.20  106.20
  20  -2 -17 1521.59   96.04
  20   2 -17 1457.36   95.55
 -20  -2  18  766.07   57.97
 -20   2  18  668.07   58.56
  20  -2 -18  692.55   49.60
  20   2 -18  805.23   49.78
 -20  -2  19 1772.54  131.35
 -20   2  19 1841.30  134.11
  20  -2 -19 1946.44  123.89
  20   2 -19 1961.12  123.62
 -20  -2  20 1042.88   75.60
 -20   2  20 1025.49   77.85
  20   2 -20  936.39   73.57
  20  -2 -20  995.75   74.90
  20  -2 -20 1013.60   67.31
  20   2 -20 1059.98   67.23
  20   2 -21  375.87   27.97
  20  -2 -21  474.83   29.67
  20   2 -21  437.10   29.18
  20  -2 -22   47.65    5.48
  20   2 -22   47.41    5.38
  20  -2 -23   56.69    6.13
  20   2 -23   65.35    6.29
  20  -2 -24    8.45    2.41
  20   2 -24   17.86    2.95
  20  -2 -25   57.67    6.18
  20   2 -25   78.79    6.64
  20  -2 -26   16.79    2.98
  20   2 -26   21.16    3.06
  20  -2 -27   34.03    3.76
  20   2 -27   28.04    3.43
  20  -2 -28  141.48   10.13
  20   2 -28  123.52    9.81
  20  -2 -29  114.65    8.78
  20   2 -29  115.33    8.63
  20  -2 -30  671.05   43.01
  20   2 -30  658.20   42.84
  20  -2 -31  315.23   19.42
  20   2 -31  274.07   19.14
 -20  -4 -11  485.27   30.97
 -20  -4 -11  443.56   31.02
 -20   4 -11  530.37   31.62
 -20  -4 -10   13.80    2.18
 -20  -4 -10   13.49    1.77
 -20   4 -10    5.83    1.51
 -20  -4 -10   13.08    1.76
 -20  -4 -10   10.87    1.73
 -20   4 -10    8.63    1.93
 -20  -4  -9  464.06   31.01
 -20  -4  -9  453.33   30.37
 -20   4  -9  483.03   30.64
 -20  -4  -9  451.06   30.40
 -20  -4  -9  431.54   30.51
 -20   4  -9  524.87   31.39
 -20  -4  -8    2.63    1.21
 -20   4  -8    0.43    1.56
 -20  -4  -8    0.79    1.26
 -20  -4  -8   -0.28    1.08
 -20   4  -8    0.32    1.20
 -20  -4  -8    1.16    1.07
 -20  -4  -7   12.50    2.29
 -20   4  -7   15.82    3.07
 -20  -4  -7    8.93    2.17
 -20   4  -7   14.94    2.20
 -20  -4  -7   12.71    2.12
 -20   4  -7    9.79    2.14
 -20  -4  -7   16.89    2.40
 -20  -4  -6   12.86    2.50
 -20   4  -6   15.53    3.03
 -20  -4  -6   13.19    2.66
 -20   4  -6   11.53    2.38
 -20  -4  -6   17.17    2.56
 -20   4  -6   14.06    2.48
 -20  -4  -6   12.27    2.17
 -20  -4  -6   14.30    2.43
 -20  -4  -5   95.96    8.50
 -20   4  -5  103.92    8.40
 -20  -4  -5   91.15    7.76
 -20  -4  -5   96.83    8.28
 -20   4  -5  106.10    9.01
 -20  -4  -4    8.15    2.15
 -20   4  -4    7.95    2.50
 -20  -4  -4    8.00    2.25
 -20   4  -4   11.03    2.43
 -20  -4  -4    8.66    1.85
 -20   4  -3  310.30   21.21
 -20  -4  -3  303.13   20.59
 -20  -4  -3  288.88   21.03
 -20  -4  -3  271.40   20.99
 -20   4  -3  324.86   22.03
 -20   4  -2   20.63    3.88
 -20   4  -2   20.71    3.55
 -20  -4  -2   29.81    3.86
 -20  -4  -2   27.97    4.01
 -20   4  -1 2706.74  162.79
 -20  -4  -1 2533.53  168.77
 -20   4  -1 2423.18  169.37
 -20  -4  -1 2514.63  161.86
 -20  -4  -1 2637.19  162.72
  20  -4   1 2297.14  172.47
  20   4   1 2293.62  168.60
 -20  -4  -1 2515.78  162.71
 -20   4  -1 2608.84  163.41
 -20  -4   0   11.36    2.22
 -20  -4   0   12.66    4.61
 -20  -4   0   11.26    2.96
  20  -4   0   17.52    6.60
  20   4   0    8.71    3.62
 -20  -4   0   14.84    3.22
 -20   4   0   17.19    3.59
 -20  -4   1 2389.92  156.25
 -20  -4   1 2475.81  162.46
 -20   4   1 2475.11  163.77
 -20  -4   1 2405.62  155.29
 -20  -4   1 2498.17  156.32
 -20   4   1 2545.48  157.05
 -20  -4   2    7.19    2.14
 -20  -4   2    8.02    4.80
 -20   4   2    1.86    4.08
 -20  -4   2    7.46    2.35
 -20  -4   3  269.22   19.96
 -20  -4   3  250.12   24.74
 -20   4   3  276.67   26.34
 -20  -4   3  298.91   20.09
 -20  -4   4   71.56   10.42
 -20   4   4   58.88   10.43
 -20  -4   4   57.14    5.82
 -20  -4   5  110.48   14.63
 -20   4   5  150.08   17.22
 -20  -4   5  131.13   10.34
 -20  -4   6    1.74    4.09
 -20   4   6    6.32    4.94
 -20  -4   6    3.32    1.78
  20  -4  -6    8.10    2.16
  20   4  -6    5.21    1.67
 -20   4   7  695.28   49.45
 -20  -4   7  813.28   57.11
 -20   4   7  820.48   59.14
 -20  -4   7  767.85   49.28
  20  -4  -7  766.83   50.18
  20   4  -7  745.71   49.40
 -20   4   8    5.88    1.68
 -20  -4   8    2.29    1.31
 -20  -4   8    1.86    3.44
 -20  -4   8    1.14    1.14
  20  -4  -8    5.02    1.85
  20   4  -8    5.20    1.69
 -20  -4   9   22.92    3.18
 -20   4   9   18.19    2.99
 -20  -4   9   19.87    2.84
 -20  -4   9    7.72    4.67
 -20   4   9    9.73    5.81
 -20  -4   9   20.20    2.81
  20  -4  -9   17.54    3.07
  20   4  -9   22.14    3.09
 -20   4  10    8.87    2.29
 -20  -4  10   12.72    2.15
 -20  -4  10   16.07    5.55
 -20   4  10    2.57    6.03
 -20  -4  10    8.56    1.88
  20  -4 -10   11.34    2.37
  20   4 -10   11.33    2.14
 -20   4  11  867.01   57.97
 -20  -4  11  893.69   57.31
 -20  -4  11  901.07   66.86
 -20   4  11  900.01   69.67
  20  -4 -11  868.68   57.91
  20   4 -11  869.55   57.40
 -20  -4  12   36.01    3.97
 -20   4  12   23.55    3.94
 -20  -4  12   17.45    6.92
 -20   4  12    5.70    5.98
  20  -4 -12   18.26    3.58
  20   4 -12   33.17    3.91
 -20   4  13 3101.68  196.17
 -20  -4  13 3506.79  195.59
 -20  -4  13 2786.94  204.42
 -20   4  13 2959.34  208.72
 -20   4  13 2750.08  194.92
  20  -4 -13 3044.72  195.65
  20   4 -13 3170.84  195.32
 -20   4  14   21.01    3.73
 -20  -4  14   15.00    3.03
 -20   4  14   18.50    8.12
 -20  -4  14   16.23    5.83
 -20   4  14   15.02    2.75
  20  -4 -14   16.25    3.03
  20   4 -14   10.96    2.48
 -20   4  15  353.35   23.79
 -20  -4  15  369.38   22.96
 -20   4  15  278.88   33.18
 -20  -4  15  295.87   30.92
 -20   4  15  281.25   22.20
  20  -4 -15  299.52   22.55
  20   4 -15  330.91   22.45
 -20  -4  16   16.82    3.01
 -20   4  16   21.10    3.71
 -20   4  16   16.21    7.16
 -20  -4  16    7.23    4.98
 -20   4  16   16.48    2.96
  20  -4 -16   13.77    2.76
  20   4 -16   17.83    2.83
 -20  -4  17  114.13    9.32
 -20   4  17   98.89    9.80
 -20   4  17   85.69   16.81
 -20  -4  17   83.01   14.43
  20  -4 -17  110.93    9.22
  20   4 -17  112.49    8.99
 -20  -4  18  114.65   14.58
  20   4 -18  117.45   13.08
 -20   4  18   84.10   14.58
  20  -4 -18   83.85    8.29
  20   4 -18  114.32    8.60
  20  -4 -18   82.09   12.07
  20  -4 -19  559.50   38.52
  20   4 -19  590.19   38.43
  20  -4 -20   11.25    2.30
  20   4 -20   10.23    2.19
  20   4 -21  110.91    8.68
  20  -4 -21   96.06    8.53
  20   4 -21  102.54    8.48
  20   4 -22   10.31    2.13
  20  -4 -22    4.89    1.76
  20   4 -22   10.03    2.05
  20   4 -23  906.73   61.79
  20  -4 -23  952.66   61.92
  20   4 -23 1004.39   61.83
  20   4 -24   23.79    2.86
  20   4 -24   21.35    2.73
  20   4 -25 1304.57   88.20
  20  -4 -25 1332.97   88.28
  20   4 -25 1512.81   88.30
  20   4 -26    6.58    1.57
  20  -4 -26    5.00    1.54
  20   4 -26    6.88    1.63
  20  -4 -27 1116.31   71.17
  20   4 -27 1112.06   71.00
  20  -4 -28    1.19    0.93
  20   4 -28   -0.17    0.95
 -20  -6 -10   45.67    3.59
 -20  -6  -9   62.12    4.86
 -20  -6  -8  546.06    9.71
 -20  -6  -8  567.79    9.21
 -20  -6  -7   90.32    7.09
 -20  -6  -7  101.72    6.98
 -20  -6  -6  514.62   36.46
 -20  -6  -6  537.39   36.01
 -20  -6  -5  546.48   35.43
 -20   6  -5  530.66   35.72
 -20  -6  -5  527.43   34.75
 -20  -6  -4  252.91   17.87
 -20  -6  -4  234.38   17.09
 -20  -6  -4  244.82   17.62
 -20   6  -3    2.30    1.67
 -20  -6  -3    3.00    0.99
 -20  -6  -3    5.65    1.59
 -20   6  -2    4.71    1.81
 -20  -6  -2    4.50    1.21
 -20  -6  -2    7.45    1.82
 -20   6  -1    8.13    2.33
 -20  -6  -1   11.77    1.81
 -20  -6  -1   10.84    2.28
  20   6   1    9.08    1.79
 -20   6   0  238.29   15.60
 -20  -6   0  213.23   14.92
 -20  -6   1  192.87   13.70
  20   6  -1  175.74   12.99
 -20  -6   2    4.64    1.65
 -20  -6   2    2.80    1.38
  20   6  -2    2.69    1.15
 -20  -6   3   90.47    7.81
 -20  -6   3   98.92    7.79
  20   6  -3   84.12    7.17
 -20  -6   4  154.26   11.25
 -20  -6   4  142.68   10.87
  20   6  -4  131.19   10.37
 -20  -6   5 1092.16   71.05
 -20  -6   5 1122.17   70.77
  20   6  -5 1075.67   70.30
 -20  -6   6  562.08   36.43
 -20  -6   6  554.60   35.96
  20   6  -6  518.12   35.55
 -20  -6   7  994.41   64.50
 -20  -6   7 1022.86   64.02
  20   6  -7  960.41   63.71
 -20  -6   8  175.14   13.45
 -20   6   8  210.44   13.89
 -20  -6   8  174.67   12.86
  20   6  -8  165.45   12.67
 -20  -6   9 1030.63   63.95
 -20   6   9  931.40   63.92
 -20  -6   9 1012.64   63.20
  20   6  -9  950.60   63.08
 -20  -6  10    8.95    2.30
 -20   6  10    7.21    2.11
  20   6 -10    5.73    1.60
 -20   6  11   74.79    7.54
  20   6 -11   91.12    7.00
 -20   6  12  309.24   21.30
 -20   6  12  289.14   22.00
  20   6 -12  324.91   21.15
 -20   6  13   10.85    2.19
 -20   6  13   15.49    2.96
 -20   6  14  382.03   26.84
 -20   6  14  407.50   28.03
  20   6 -14  408.74   26.61
 -20   6  15    2.25    1.81
  20   6 -15    3.11    1.14
 -20   6  16   80.16    7.33
  20   6 -16   63.84    5.66
 -20   6  17  544.72   38.34
  20   6 -17  572.28   36.81
 -20   6  18  409.25   27.67
  20   6 -18  382.50   25.84
 -20   6  19 1038.26   68.17
 -20   6  20  625.97   43.48
  20   6 -20  664.04   42.71
 -20   6  21  275.29   22.73
  20   6 -21  369.85   22.50
 -20   6  22   23.75    3.85
  20   6 -22   41.16    3.90
 -20   6  23   14.97    2.85
  20   6 -23   20.37    2.65
 -20   6  24   31.82    4.10
  20   6 -24   46.34    4.03
  20   6 -25  383.11   25.38
  20   6 -26   13.24    1.77
  20   6 -27    2.57    0.74
 -20  -8  -8   21.21    1.89
 -20   8  -6  180.66   12.73
 -20   8  -5    0.63    1.26
 -20  -8  -5    5.21    1.19
 -20   8  -4  133.82    9.70
 -20  -8  -4  117.60    8.84
 -20  -8  -3    4.77    1.21
 -20   8  -3    6.80    1.83
 -20  -8  -3    6.19    1.34
 -20  -8  -2  232.95   16.27
 -20   8  -2  270.25   17.30
 -20  -8  -2  224.45   16.23
 -20  -8  -1    2.17    1.32
 -20  -8   0  736.09   47.72
 -20   8   1    6.05    2.42
 -20  -8   1   15.67    2.23
 -20   8   2  835.82   51.60
 -20  -8   2  749.68   50.59
 -20  -8   3    7.54    1.69
 -20  -8   3    7.00    1.63
 -20  -8   4  107.29    8.13
 -20   8   4   95.80    8.48
 -20  -8   4  100.77    7.85
 -20  -8   5    2.34    1.25
 -20   8   5    2.98    1.59
 -20  -8   5    4.43    1.37
 -20  -8   6  483.62   31.80
 -20   8   6  478.44   32.24
 -20  -8   6  471.31   31.34
 -20  -8   7    5.88    1.73
 -20   8   7    4.09    1.72
 -20  -8   7    6.20    1.36
 -20  -8   8  197.12   13.75
 -20   8   8  179.01   13.83
 -20  -8   9    0.35    1.21
 -20   8   9    4.24    1.57
 -20  -8  10  602.29   38.19
 -20   8  10  557.32   38.69
 -20   8  10  566.07   38.18
 -20  -8  11   16.99    2.64
 -20   8  11    5.71    1.92
 -20   8  11    8.87    2.51
  20   8 -11   16.11    2.25
 -20  -8  12 3081.70  184.57
 -20   8  12 2785.31  185.12
 -20   8  12 2844.30  184.29
  20   8 -12 2914.36  183.86
 -20   8  13   47.25    5.92
 -20   8  13   53.45    5.42
 -20   8  14 1241.07   82.04
 -20   8  14 1255.69   80.92
  20   8 -14 1284.40   80.66
 -20   8  15    4.56    1.83
  20   8 -15    1.64    1.07
 -20   8  16   33.18    4.22
  20   8 -16   27.75    2.89
 -20   8  17    2.47    1.64
  20   8 -17    4.14    1.41
  20   8 -17    1.42    0.87
 -20   8  18  328.40   24.41
  20   8 -18  366.86   23.67
 -20   8  19   12.28    2.64
  20   8 -19   12.38    1.94
 -20   8  20   32.94    4.16
  20   8 -20   40.28    3.68
 -20   8  21    1.15    1.62
  20   8 -21    4.23    1.26
  20   8 -22  113.39    8.26
  20   8 -23   25.38    2.56
  20   8 -24  795.47   50.75
 -20 -10  -2    1.68    0.57
 -20  10  -1  222.69   13.24
 -20 -10  -1  171.46   12.30
 -20  10   0  359.37   23.43
 -20 -10   0  344.90   22.68
 -20  10   1   58.04    4.82
 -20 -10   1   49.19    4.02
 -20  10   2   11.91    2.02
 -20 -10   2   12.60    1.53
 -20  10   3   16.22    2.33
 -20 -10   3   13.65    1.62
 -20  10   4   86.28    6.91
 -20 -10   4   84.58    6.13
 -20  10   5  305.76   20.76
 -20  10   6  711.59   46.21
 -20  10   7  496.32   32.25
  20  10  -7  485.23   31.67
 -20 -10   8  209.95   13.73
 -20  10   8  177.68   13.90
  20  10  -8  210.97   13.63
 -20 -10   9  156.37   10.76
 -20  10   9  144.73   10.90
  20  10  -9  158.27   10.62
 -20 -10  10    3.52    1.05
 -20  10  10    2.27    1.01
 -20 -10  11    4.61    1.13
  20  10 -11    2.02    0.84
 -20 -10  12  341.41   21.39
  20  10 -12  316.38   21.19
  20  10 -12  312.19   21.03
 -20 -10  13  134.16    9.35
  20  10 -13  134.76    9.22
  20  10 -13  125.14    8.98
  20  10 -14  485.19   30.82
  20  10 -14  451.76   30.53
  20 -10 -14  514.12   31.50
  20  10 -15    2.43    0.84
  20  10 -15    1.63    0.65
  20  10 -16   51.87    4.12
  20  10 -17  248.22   16.41
  20  10 -18  306.16   19.97
  20  10 -19  391.66   25.24
 -21  -1 -13    4.26    1.05
 -21  -1 -12   13.31    1.89
 -21  -1 -11   81.25    6.50
 -21   1 -11   85.95    6.68
 -21  -1 -11   79.37    6.61
 -21  -1 -10    5.72    1.70
 -21  -1 -10    1.51    1.24
 -21   1 -10    3.82    1.57
 -21  -1  -9   11.45    2.39
 -21  -1  -9   14.20    2.50
 -21  -1  -9   18.57    2.59
 -21  -1  -8    1.27    1.53
 -21  -1  -8    0.38    1.31
 -21  -1  -8    4.09    1.26
 -21   1  -7   49.24    5.43
 -21  -1  -7   62.90    5.62
 -21  -1  -7   54.78    5.05
 -21  -1  -7   50.33    5.54
 -21  -1  -6   38.97    4.08
 -21  -1  -6   48.65    4.92
 -21  -1  -5    1.53    1.68
 -21   1  -5   -0.50    1.89
 -21  -1  -5    1.58    1.53
 -21  -1  -4   41.10    4.88
 -21   1  -4   46.21    5.09
 -21  -1  -4   37.19    4.77
 -21  -1  -4   37.72    4.32
 -21  -1  -3  238.46   16.46
 -21   1  -3  207.22   15.96
 -21   1  -3  214.07   15.16
 -21  -1  -3  195.89   16.01
  21  -1   2   99.90   14.85
  21   1   2   60.79   11.60
 -21  -1  -2   88.83    7.87
 -21   1  -2   84.80    7.55
 -21   1  -2   87.10    7.29
 -21  -1  -2   56.93   11.07
 -21   1  -2   83.09   12.91
 -21  -1  -2   69.29    7.32
  21  -1   1    4.70    4.34
  21   1   1    4.09    3.78
 -21  -1  -1    0.55    2.00
 -21   1  -1    3.48    1.89
 -21  -1  -1   -1.99    2.85
 -21   1  -1    4.21    3.48
 -21  -1  -1    2.34    1.69
 -21   1   0  390.99   26.83
 -21  -1   0  421.08   34.63
 -21   1   0  415.06   35.05
 -21  -1   0  423.89   26.95
  21  -1   0  327.92   34.16
 -21  -1   0  339.61   26.82
 -21   1   1   71.60    6.38
 -21  -1   1   22.42    7.88
 -21   1   1   75.90   12.33
 -21   1   1   72.72    6.28
 -21  -1   1   61.83    6.07
 -21  -1   1   45.54    5.97
  21  -1  -1   94.88   13.81
 -21   1   2  449.35   31.71
 -21  -1   2  447.67   39.12
 -21   1   2  459.80   39.92
 -21   1   2  447.73   31.63
 -21  -1   2  528.86   32.15
  21  -1  -2  452.97   40.60
 -21  -1   2  457.27   32.28
 -21  -1   3    8.44    4.62
 -21   1   3    9.03    4.58
 -21   1   3    4.42    1.73
 -21  -1   3    3.27    1.66
  21  -1  -3   -2.43    4.92
 -21  -1   3   10.31    2.97
 -21  -1   4    8.64    5.09
 -21   1   4    8.75    2.19
 -21  -1   4   12.85    2.53
 -21  -1   4    8.11    2.42
 -21  -1   5   35.54    4.06
 -21   1   5   26.33    3.54
 -21  -1   5   30.47    3.73
 -21  -1   6  188.41   14.78
 -21  -1   6  200.22   14.98
 -21  -1   6  207.55   22.58
 -21  -1   6  204.77   14.81
 -21  -1   7  517.26   34.86
 -21  -1   7  486.38   34.88
 -21  -1   7  500.17   43.63
 -21  -1   7  547.80   34.84
 -21  -1   8  272.91   19.67
 -21  -1   8  270.09   19.86
 -21  -1   8  287.95   28.70
 -21  -1   8  273.05   19.46
  21  -1  -8  290.11   20.90
 -21  -1   9   12.82    2.40
 -21  -1   9    6.53    2.11
 -21  -1   9    2.53    5.56
 -21  -1   9   11.88    2.31
  21  -1  -9    5.98    2.33
 -21  -1  10  129.27    9.50
 -21   1  10   97.42    8.58
 -21  -1  10  117.91    9.69
 -21  -1  10   91.53   15.82
 -21  -1  10  115.23    9.04
  21  -1 -10  115.79   10.37
 -21  -1  11   64.89    5.73
 -21   1  11   59.57    5.11
 -21  -1  11   45.75    5.53
 -21  -1  11   72.97   13.46
 -21  -1  11   42.48    4.90
  21  -1 -11   62.02    6.60
 -21  -1  12 1219.31   76.93
 -21  -1  12 1208.78   77.57
 -21  -1  12 1065.16   87.83
  21  -1 -12 1146.40   78.10
 -21  -1  13  487.35   33.63
 -21  -1  13  501.07   34.47
  21  -1 -13  571.54   35.52
 -21  -1  14  777.76   50.60
 -21  -1  14  751.02   51.38
 -21  -1  14  642.94   60.86
  21  -1 -14  815.80   52.19
 -21  -1  15   61.13    6.06
 -21  -1  15   56.04   10.91
  21  -1 -15   72.16    7.45
 -21  -1  16   21.38    3.14
  21  -1 -16   27.40    4.19
 -21  -1  17    6.17    1.79
  21  -1 -17   12.61    3.04
 -21  -1  17    2.27    4.99
 -21  -1  18  775.76   65.27
  21  -1 -18  902.05   58.29
 -21  -1  19    6.84    5.68
 -21   1  19   17.81    7.30
  21  -1 -19    7.12    2.50
 -21  -1  20 1112.22   78.88
 -21   1  20  916.10   78.07
  21   1 -20 1044.00   77.27
  21  -1 -20  939.48   77.03
  21  -1 -20 1126.66   69.92
  21  -1 -21   98.59    9.23
  21  -1 -22   39.92    5.25
  21  -1 -23  165.77   13.34
  21  -1 -24  361.11   25.53
  21  -1 -25  153.13   12.17
  21  -1 -26  568.84   38.12
  21  -1 -27  190.04   14.04
  21  -1 -28    5.98    1.81
  21  -1 -29    7.60    1.82
  21  -1 -30  308.35   20.73
  21  -1 -31   98.90    7.26
  21   1 -31   97.64    7.13
 -21  -3 -11    6.96    1.41
 -21   3 -11    7.57    1.60
 -21  -3 -10   11.50    1.79
 -21   3 -10   10.24    1.87
 -21  -3 -10   15.13    1.80
 -21  -3 -10   13.71    2.03
 -21   3 -10   15.54    2.37
 -21  -3  -9   66.85    6.03
 -21  -3  -9   73.38    5.69
 -21   3  -9   66.43    5.75
 -21  -3  -9   70.43    5.51
 -21  -3  -9   62.38    5.70
 -21   3  -9   67.57    6.15
 -21  -3  -8    5.74    1.81
 -21   3  -8   11.25    2.51
 -21  -3  -8    7.79    2.08
 -21  -3  -8   11.38    2.09
 -21   3  -8   13.99    2.29
 -21  -3  -8   12.62    1.92
 -21  -3  -7  257.10   18.80
 -21  -3  -7  270.85   18.36
 -21   3  -7  270.64   18.61
 -21  -3  -7  251.26   18.16
 -21  -3  -7  265.72   18.62
 -21   3  -7  274.17   19.24
 -21  -3  -6   19.80    3.02
 -21  -3  -6   20.46    3.06
 -21  -3  -6   23.43    2.83
 -21  -3  -6   15.78    2.38
 -21  -3  -5  498.18   34.24
 -21   3  -5  507.80   33.50
 -21  -3  -5  516.23   33.71
 -21  -3  -5  468.98   33.89
 -21   3  -5  536.84   34.84
 -21  -3  -4   73.28    6.23
 -21   3  -4   41.28    4.87
 -21  -3  -4   61.46    5.78
 -21   3  -4   47.74    5.94
 -21  -3  -3   42.63    5.13
 -21   3  -3   54.83    5.11
 -21  -3  -3   41.19    5.04
 -21   3  -3   46.22    5.66
 -21  -3  -2   21.91    3.54
 -21   3  -2   30.67    4.47
 -21   3  -2   35.75    4.01
 -21   3  -2   31.80    3.90
 -21  -3  -2   33.10    3.96
 -21   3  -1    4.92    1.67
 -21  -3  -1    7.39    2.19
 -21  -3  -1    7.63    2.05
 -21   3  -1    4.35    2.27
 -21   3   0   10.85    2.23
 -21  -3   0    6.88    3.80
 -21   3   0   15.77    5.19
 -21  -3   0    9.91    2.47
  21  -3   0   15.50    6.78
  21   3   0    1.83    3.44
 -21  -3   0    6.19    2.33
 -21   3   0   15.03    3.12
 -21   3   1    7.79    1.89
 -21  -3   1   15.66    5.77
 -21   3   1    6.03    5.28
 -21  -3   1   15.24    2.80
  21  -3  -1   -2.60    6.09
  21   3  -1   -1.85    4.35
 -21  -3   1   12.49    2.66
 -21   3   1   11.33    2.80
 -21   3   2  235.64   16.67
 -21  -3   2  211.60   22.45
 -21   3   2  209.02   23.71
 -21  -3   2  234.36   17.19
 -21   3   2  247.19   18.15
 -21  -3   3  123.80   15.53
 -21   3   3  121.62   10.05
 -21   3   3  123.88   16.39
 -21  -3   3  160.15   11.19
 -21  -3   4   95.54    8.63
 -21  -3   4  111.77   14.05
 -21  -3   4  112.19    8.83
 -21  -3   5 1414.84   93.26
 -21  -3   5 1533.01  101.27
 -21   3   5 1469.66  102.81
 -21  -3   5 1450.24   93.16
 -21  -3   6   85.88    7.39
 -21  -3   6   87.32   12.76
 -21  -3   6   80.34    7.11
 -21  -3   7  719.35   49.99
 -21   3   7  754.14   50.34
 -21  -3   7  699.22   49.64
 -21  -3   7  698.26   57.15
 -21   3   7  838.17   61.00
 -21  -3   7  769.45   49.86
  21  -3  -7  833.86   51.36
  21   3  -7  815.13   50.35
 -21  -3   8  159.33   12.44
 -21   3   8  150.82   12.57
 -21  -3   8  160.74   12.27
 -21  -3   8  193.00   19.93
 -21   3   8  129.86   18.54
 -21  -3   8  184.62   12.41
  21  -3  -8  130.30   12.67
  21   3  -8  168.84   12.59
 -21  -3   9  652.84   44.63
 -21   3   9  644.84   45.02
 -21  -3   9  634.17   44.39
 -21  -3   9  616.03   52.33
 -21   3   9  715.56   56.30
 -21  -3   9  679.86   44.22
  21  -3  -9  753.59   45.94
  21   3  -9  697.32   44.85
 -21  -3  10   53.98    5.48
 -21   3  10   60.53    6.01
 -21  -3  10   54.54    5.36
 -21  -3  10   37.64    9.17
 -21   3  10   44.35   10.74
 -21  -3  10   50.01    4.99
  21  -3 -10   49.02    5.84
  21   3 -10   47.43    5.28
 -21  -3  11   56.41    5.77
 -21   3  11   68.36    6.61
 -21  -3  11   59.52    5.81
 -21  -3  11   48.30   11.04
 -21   3  11   58.11   13.01
 -21  -3  11   53.29    5.28
  21  -3 -11   64.87    6.66
  21   3 -11   58.70    5.91
 -21  -3  12  188.97   13.96
 -21   3  12  154.04   14.15
 -21  -3  12  203.44   14.19
 -21  -3  12  155.63   20.84
 -21   3  12  137.23   22.11
  21  -3 -12  173.81   14.54
  21   3 -12  216.56   14.47
 -21   3  13  435.24   31.37
 -21  -3  13  460.41   30.83
 -21  -3  13  448.94   40.41
 -21   3  13  324.24   39.61
  21  -3 -13  464.78   31.48
  21   3 -13  460.08   30.88
 -21   3  14    7.18    2.72
 -21  -3  14    6.97    2.32
 -21   3  14    9.81    6.63
 -21  -3  14    5.06    4.20
  21  -3 -14    2.40    2.14
  21   3 -14    7.96    2.28
 -21   3  15  338.31   25.02
 -21  -3  15  367.50   24.39
 -21   3  15  301.45   35.01
 -21  -3  15  273.21   31.75
  21  -3 -15  342.42   24.56
  21   3 -15  342.43   24.13
 -21  -3  16   38.75    4.57
 -21   3  16   29.12    4.74
 -21   3  16   10.25    6.55
 -21  -3  16   41.84    9.83
  21  -3 -16   21.61    3.84
  21   3 -16   30.35    3.99
 -21  -3  17   33.24    4.55
 -21   3  17   42.10    5.56
 -21  -3  17   31.70    8.49
  21  -3 -17   45.13    5.15
  21   3 -17   36.67    4.46
  21  -3 -18  375.10   26.00
  21   3 -18  366.85   25.58
 -21  -3  18  338.85   32.64
 -21   3  18  352.56   35.53
  21  -3 -19 1012.33   65.41
  21   3 -19  978.73   64.95
  21  -3 -20  279.14   20.41
  21   3 -20  282.21   20.13
  21   3 -21  227.16   17.85
  21  -3 -21  279.02   18.96
  21   3 -21  273.35   18.56
  21  -3 -22  101.42    7.90
  21   3 -22   94.98    7.52
  21   3 -23   50.78    5.26
  21  -3 -23   68.98    6.19
  21   3 -23   61.79    5.70
  21   3 -24   17.42    2.43
  21  -3 -24   12.67    2.67
  21  -3 -25 1145.87   75.81
  21   3 -25 1204.07   75.67
  21  -3 -26  206.99   15.75
  21   3 -26  240.17   15.77
  21  -3 -27  342.51   22.49
  21   3 -27  322.72   22.18
  21   3 -28   19.97    2.28
  21  -3 -28   18.08    2.42
  21  -3 -29   83.84    6.30
  21   3 -29   80.66    6.07
 -21  -5 -10    6.68    1.00
 -21  -5  -9   40.94    3.45
 -21  -5  -8    5.86    1.51
 -21  -5  -8    6.79    1.29
 -21  -5  -7   13.50    2.01
 -21  -5  -7   11.39    1.66
 -21  -5  -6    5.85    1.71
 -21   5  -6    7.29    1.75
 -21   5  -6    4.20    1.25
 -21  -5  -6    4.96    1.42
 -21  -5  -5    8.58    1.87
 -21   5  -5    4.79    1.63
 -21   5  -5    6.40    1.52
 -21  -5  -4    6.43    1.94
 -21   5  -4    6.49    1.90
 -21  -5  -4    4.17    1.34
 -21   5  -4    6.50    1.58
 -21  -5  -3   10.67    2.21
 -21   5  -3    5.18    1.86
 -21   5  -3    3.20    1.37
 -21  -5  -3    8.67    1.88
 -21   5  -2  197.40   14.81
 -21  -5  -2  199.92   14.51
 -21   5  -1  124.51   10.59
 -21  -5  -1  140.29   10.52
 -21   5   0   12.10    2.51
 -21  -5   0    8.63    2.08
 -21   5   1  414.09   28.23
 -21  -5   1  403.48   27.86
 -21  -5   2  208.50   15.74
 -21  -5   2  203.56   15.65
  21  -5  -2  256.40   16.57
  21   5  -2  205.42   15.35
 -21  -5   3  137.87   10.30
 -21  -5   3  131.44   10.05
  21  -5  -3  111.83   10.19
  21   5  -3  120.59    9.71
 -21  -5   4    7.21    2.19
 -21  -5   4    9.79    2.35
  21  -5  -4    7.95    2.26
  21   5  -4   14.96    2.35
 -21  -5   5  242.68   18.40
 -21  -5   5  264.57   18.29
  21  -5  -5  260.54   18.72
  21   5  -5  258.34   18.10
 -21  -5   6    4.51    1.91
 -21  -5   6    4.22    1.60
  21  -5  -6    5.83    2.06
  21   5  -6    1.13    1.30
 -21  -5   7  530.67   37.15
 -21   5   7  519.05   43.75
 -21  -5   7  557.34   36.83
  21  -5  -7  556.81   37.44
  21   5  -7  582.20   36.95
 -21  -5   8    1.05    1.13
  21  -5  -8    2.37    1.67
  21   5  -8    4.50    1.53
 -21   5   9   95.35   14.89
 -21  -5   9  109.47    8.77
  21  -5  -9  114.81    9.51
  21   5  -9  119.34    9.07
 -21   5  10   35.36    4.13
  21  -5 -10   45.31    4.69
  21   5 -10   36.06    3.98
 -21   5  11 1023.01   66.97
 -21  -5  11 1160.95   66.65
 -21   5  11 1059.08   76.68
 -21   5  11  914.21   66.51
  21  -5 -11 1003.48   67.01
  21   5 -11 1047.48   66.66
 -21   5  12  537.84   34.32
 -21  -5  12  514.48   33.61
 -21   5  12  485.83   33.86
  21  -5 -12  546.57   34.33
  21   5 -12  462.77   33.57
 -21   5  13 1998.92  126.41
 -21  -5  13 2180.39  125.94
 -21   5  13 1798.57  125.94
  21  -5 -13 1871.62  126.09
  21   5 -13 2020.93  125.87
 -21   5  14  100.61    7.56
 -21  -5  14   65.12    6.22
 -21   5  14   77.80    6.85
  21  -5 -14   87.50    7.00
  21   5 -14   52.98    5.92
 -21   5  15  507.81   34.95
 -21  -5  15  570.54   34.53
 -21   5  15  457.50   34.54
  21  -5 -15  504.18   34.58
  21   5 -15  535.55   34.35
 -21  -5  16   30.64    3.75
 -21   5  16   33.42    4.39
 -21   5  16   36.54    4.36
  21  -5 -16   35.69    4.02
  21   5 -16   30.64    3.59
 -21   5  17   58.18    6.23
 -21  -5  17   74.43    6.02
 -21   5  17   47.73    5.71
  21  -5 -17   56.01    5.66
  21   5 -17   70.72    5.75
 -21   5  18  196.03   15.46
 -21  -5  18  242.72   15.22
 -21   5  18  201.70   15.34
  21  -5 -18  194.14   14.82
  21   5 -18  197.36   14.60
 -21   5  19  222.51   16.68
 -21   5  19  186.36   16.11
  21  -5 -19  191.91   15.70
  21   5 -19  240.63   15.83
 -21   5  20   12.69    2.93
 -21  -5  20   13.02    2.42
  21  -5 -20   12.74    2.24
  21   5 -20   13.01    2.05
 -21   5  21   19.85    3.12
 -21  -5  21   18.40    2.53
  21   5 -21   12.45    2.12
  21  -5 -21    6.05    1.56
  21   5 -21    4.21    1.40
 -21   5  22   -1.36    1.75
  21   5 -22    3.81    1.34
  21  -5 -22   -0.29    1.32
  21   5 -22    1.52    1.09
 -21   5  23  619.84   41.07
  21   5 -23  620.23   40.59
  21  -5 -23  600.88   40.20
  21   5 -23  634.15   40.07
 -21   5  24   51.32    4.48
  21   5 -24   52.27    4.15
  21  -5 -24   50.23    3.85
  21   5 -25 1431.28   15.91
  21   5 -25    0.16    0.30
  21   5 -26   59.63    3.05
  21   5 -26    0.12    0.18
 -21  -7  -8   61.29    4.46
 -21  -7  -7   93.25    6.65
 -21   7  -6  149.71   10.72
 -21   7  -5   48.39    4.70
 -21  -7  -5   53.15    4.33
 -21  -7  -4   35.89    3.68
 -21  -7  -4   39.23    3.69
 -21  -7  -3   14.29    2.07
 -21   7  -3    9.49    2.26
 -21  -7  -3   14.80    2.07
 -21  -7  -2   20.90    2.80
 -21  -7  -2   21.46    2.72
 -21   7  -1   16.88    2.81
 -21  -7  -1   14.89    2.27
 -21   7   0  246.08   17.35
 -21  -7   0  232.86   16.55
 -21  -7   1    0.94    1.04
 -21  -7   2    4.11    1.36
 -21  -7   3   84.01    7.38
 -21   7   3   97.72    8.04
 -21  -7   3   93.22    7.39
 -21  -7   4   48.42    4.98
 -21   7   4   62.33    5.66
 -21  -7   4   49.81    4.79
 -21  -7   5  125.82    9.92
 -21   7   5  117.69   10.10
 -21  -7   5  137.20    9.70
 -21  -7   6  752.77   50.17
 -21   7   6  802.60   50.64
 -21  -7   6  757.78   49.72
 -21  -7   7  373.33   24.90
 -21   7   7  349.63   25.01
 -21  -7   7  364.90   24.29
 -21  -7   8  621.21   40.45
 -21   7   8  648.25   40.75
 -21  -7   8  584.49   39.67
 -21  -7   9  160.94   11.29
 -21   7   9  130.48   10.99
 -21  -7  10   25.69    3.40
 -21  -7  11   46.75    4.56
 -21   7  11   38.88    4.61
  21   7 -11   41.77    3.91
 -21  -7  12   25.20    3.24
 -21   7  12   26.66    3.61
  21   7 -12   22.84    2.69
 -21  -7  13   33.76    3.88
 -21   7  13   36.02    4.25
  21   7 -13   34.45    3.38
 -21   7  14  251.13   18.27
 -21   7  15    5.27    1.91
 -21   7  15    2.83    1.32
 -21   7  16  238.91   17.40
 -21   7  16  234.29   16.34
 -21   7  17  117.46    9.80
 -21   7  18  869.02   57.03
 -21   7  19  339.41   26.94
  21   7 -19  448.10   26.72
 -21   7  20 1853.64  132.64
  21   7 -20 2278.93  132.28
 -21   7  21  269.32   22.33
  21   7 -21  388.01   22.30
  21   7 -22  614.79   39.91
  21   7 -23    5.28    1.24
  21   7 -24   61.77    4.87
  21   7 -25   48.67    3.86
 -21  -9  -4  135.65    9.09
 -21   9  -3    4.82    1.20
 -21  -9  -3    2.55    0.73
 -21   9  -2  456.64   28.29
 -21  -9  -2  410.74   27.46
 -21  -9  -1   63.79    4.89
 -21   9   0  756.78   46.47
 -21  -9   0  689.49   45.59
 -21   9   1    5.88    1.63
 -21  -9   1    9.50    1.49
 -21   9   2  940.72   58.20
 -21  -9   2  875.04   57.27
 -21   9   3   65.61    6.15
 -21  -9   3   76.76    5.61
 -21   9   4  219.92   15.12
 -21  -9   4  206.32   14.20
 -21   9   5    5.12    1.56
 -21  -9   5    5.66    1.08
 -21  -9   6   49.90    4.15
 -21   9   6   43.23    4.44
 -21  -9   6   43.06    3.66
 -21  -9   7  130.44    9.77
 -21   9   7  142.99   10.33
 -21  -9   8   26.88    2.90
 -21   9   8   25.52    3.13
 -21   9   9   44.19    4.57
  21   9  -9   47.41    4.07
 -21  -9  10  206.35   14.31
 -21   9  10  203.53   14.48
  21   9 -10  206.37   13.89
 -21  -9  11    4.23    1.33
 -21   9  11    3.35    1.26
  21   9 -11    3.94    1.13
 -21  -9  12 1381.97   82.76
 -21   9  12 1238.04   82.51
  21   9 -12 1283.26   82.11
 -21  -9  13  201.38   13.28
 -21   9  13  187.25   12.97
  21   9 -13  178.74   12.59
 -21  -9  14 1016.90   57.10
  21   9 -14  822.62   56.21
 -21  -9  15   55.47    4.48
 -21   9  15   59.92    5.07
  21   9 -15   42.25    4.05
  21   9 -15   45.04    3.75
 -21  -9  16   97.29    7.41
 -21  -9  17    7.15    1.38
  21   9 -20  241.01   15.98
  21   9 -21    1.77    0.70
 -22   0 -12    4.02    1.01
 -22   0 -11   -0.70    0.94
 -22   0 -10   22.56    2.84
 -22   0 -10   23.69    2.77
 -22   0  -9    3.02    1.59
 -22   0  -9    3.88    1.63
 -22   0  -8  595.62   37.52
 -22   0  -8  536.96   37.53
 -22   0  -7    7.63    2.42
 -22   0  -7    7.11    2.21
 -22   0  -7    7.98    2.44
 -22   0  -6 1251.82   78.62
 -22   0  -6 1174.24   78.53
 -22   0  -5    1.96    1.99
 -22   0  -5    2.39    1.63
 -22   0  -4  292.56   21.18
 -22   0  -4  324.11   20.79
 -22   0  -4  265.64   21.03
 -22   0  -3    3.73    2.16
 -22   0  -3    1.01    1.57
 -22   0  -3    1.24    1.60
 -22   0  -2  575.25   37.27
 -22   0  -2  520.57   37.15
 -22   0  -1    3.91    1.97
 -22   0  -1    3.61    1.77
 -22   0   0   23.81    3.79
 -22   0   0   19.56    3.44
 -22   0   0   12.24    5.50
 -22   0   0   28.06    3.54
  22   0   0   15.03    6.04
 -22   0   1    2.58    1.97
 -22   0   1    4.15    3.44
 -22   0   1    4.20    2.06
  22   0  -1    4.35    4.03
 -22   0   1    4.60    2.24
 -22   0   2  715.70   52.50
 -22   0   2  696.43   43.55
 -22   0   2  635.39   43.94
 -22   0   3    4.33    4.01
 -22   0   3    1.41    1.65
 -22   0   3    1.18    1.96
 -22   0   4   19.98    6.62
 -22   0   4   32.03    4.00
 -22   0   5   -2.30    4.25
 -22   0   5   -2.74    1.42
 -22   0   6    2.37    3.96
 -22   0   6   13.90    2.44
 -22   0   7    3.06    1.74
 -22   0   7   -2.45    3.51
 -22   0   7   -0.44    1.58
 -22   0   8   26.90    3.69
 -22   0   8   31.18    4.27
 -22   0   8   40.31    9.29
 -22   0   8   33.38    3.95
  22   0  -8   34.40    4.71
 -22   0   9    1.24    1.19
 -22   0   9    1.06    1.75
 -22   0   9   -2.61    3.74
  22   0  -9    0.63    1.80
 -22   0  10    9.80    2.09
 -22   0  10    8.08    2.51
  22   0 -10    5.10    2.33
 -22   0  11    2.81    1.45
 -22   0  11    0.55    1.70
 -22   0  11   -2.81    6.58
  22   0 -11    1.94    1.86
 -22   0  12  965.67   61.41
 -22   0  12  907.87   62.21
 -22   0  12  823.61   72.76
  22   0 -12  983.07   62.97
 -22   0  13    2.32    1.25
 -22   0  13    2.32    1.80
 -22   0  13    2.97    5.50
  22   0 -13    1.99    1.98
 -22   0  14  643.70   41.17
 -22   0  14  597.77   42.34
  22   0 -14  671.08   42.93
 -22   0  15    6.20    1.77
 -22   0  15   -0.62    2.41
 -22   0  15    3.06    3.59
  22   0 -15    2.66    2.47
 -22   0  16 1186.54   77.00
  22   0 -16 1228.04   77.37
 -22   0  17    2.44    4.03
  22   0 -17    0.66    2.04
 -22   0  18    9.76    5.42
  22   0 -18   16.98    3.37
 -22   0  19    2.43    2.85
  22   0 -19    3.85    2.38
  22   0 -20   69.80    7.29
  22   0 -21   -0.61    1.95
  22   0 -22  106.14    9.54
  22   0 -23    3.34    1.91
  22   0 -24 1311.76   85.16
  22   0 -25    7.65    2.45
  22   0 -26 3492.82  221.37
  22   0 -27    4.57    1.83
  22   0 -28  709.58   46.36
  22   0 -29    2.80    1.10
  22   0 -30   40.39    3.74
 -22   2 -11  329.62   21.83
 -22  -2 -10  179.47   11.38
 -22   2 -10  140.03   11.33
 -22  -2  -9  469.75   31.07
 -22   2  -9  515.23   31.37
 -22  -2  -9  434.44   31.13
 -22   2  -9  485.04   31.61
 -22   2  -8    6.58    1.89
 -22  -2  -8    5.41    1.61
 -22  -2  -8    5.12    1.45
 -22   2  -8    8.57    1.77
 -22  -2  -8    4.24    1.20
 -22  -2  -8    3.23    1.52
 -22  -2  -7  121.29    9.86
 -22  -2  -7  118.66    9.43
 -22   2  -7  141.71    9.89
 -22  -2  -7  130.88    9.30
 -22  -2  -7  107.00    9.46
 -22   2  -7  127.02   10.06
 -22  -2  -6   22.06    3.18
 -22   2  -6   15.83    3.08
 -22  -2  -6   20.45    3.13
 -22  -2  -6   23.39    3.11
 -22   2  -6   13.45    2.64
 -22  -2  -6   30.00    3.03
 -22  -2  -5  154.75   10.93
 -22  -2  -5  129.84   11.03
 -22   2  -5  144.04   11.67
 -22  -2  -4   10.56    2.41
 -22   2  -4   12.55    2.98
 -22   2  -4   11.12    2.34
 -22  -2  -4    6.51    1.77
 -22   2  -3  122.72   10.25
 -22   2  -3  143.54   10.03
 -22  -2  -3  104.16   10.14
 -22   2  -3  153.49   11.47
 -22   2  -2  219.68   16.60
 -22   2  -2  225.51   16.25
 -22  -2  -2  241.67   17.11
 -22   2  -2  230.77   17.45
 -22   2  -1  269.63   18.80
 -22  -2  -1  264.73   18.83
 -22   2  -1  304.59   20.02
 -22   2   0   87.47    8.24
 -22  -2   0  118.45    8.93
 -22  -2   0  104.57    8.95
 -22   2   0   92.11    9.10
 -22   2   1  503.46   32.16
 -22  -2   1  407.84   38.01
 -22   2   1  523.16   40.96
 -22  -2   1  493.57   32.37
  22  -2  -1  466.48   41.94
 -22  -2   1  468.11   32.52
 -22   2   1  491.92   33.12
 -22   2   2  186.93   14.96
 -22  -2   2  214.28   21.81
 -22   2   2  224.92   22.95
 -22  -2   2  232.54   15.71
 -22  -2   2  206.61   15.72
 -22   2   2  198.04   16.05
 -22   2   3  108.75    8.78
 -22  -2   3   99.85   13.98
 -22   2   3  124.07   15.96
 -22  -2   3  101.26    9.02
 -22   2   4  304.36   21.14
 -22  -2   4  291.09   28.00
 -22   2   4  284.54   29.12
 -22  -2   4  308.58   21.62
 -22  -2   5  234.68   18.41
 -22  -2   5  238.07   24.80
 -22   2   5  270.37   27.10
 -22   2   5  270.27   18.15
 -22  -2   5  260.60   18.55
 -22  -2   6  431.22   29.70
 -22  -2   6  423.50   37.05
 -22   2   6  377.93   37.40
 -22   2   6  431.73   29.08
 -22  -2   6  447.42   29.64
 -22  -2   7   42.92    5.22
 -22   2   7   67.08    5.37
 -22  -2   7   36.37    9.57
 -22   2   7   54.58   11.50
 -22  -2   7   44.15    5.05
  22  -2  -7   64.99    6.79
  22   2  -7   46.20    5.49
 -22  -2   8  983.22   62.43
 -22   2   8  867.04   62.45
 -22  -2   8  926.16   62.14
 -22  -2   8 1012.01   71.92
 -22   2   8  912.15   72.73
 -22  -2   8  984.02   62.08
  22  -2  -8  955.44   63.37
  22   2  -8  992.47   62.70
 -22  -2   9  207.18   15.71
 -22   2   9  223.13   16.29
 -22  -2   9  218.01   15.80
 -22  -2   9  149.35   21.21
 -22   2   9  291.41   27.62
 -22  -2   9  197.72   15.26
  22  -2  -9  265.12   17.43
  22   2  -9  193.61   15.83
 -22  -2  10  269.44   18.80
 -22   2  10  245.18   19.09
 -22  -2  10  259.82   18.76
 -22  -2  10  269.67   27.46
 -22   2  10  200.21   26.42
 -22  -2  10  249.61   18.23
  22  -2 -10  267.73   19.84
  22   2 -10  279.67   19.24
 -22  -2  11    3.72    1.65
 -22   2  11    4.65    1.87
 -22  -2  11    4.35    1.56
 -22  -2  11    2.45    6.41
 -22   2  11   -2.91    7.61
 -22  -2  11    1.84    1.24
  22  -2 -11    5.40    1.95
  22   2 -11    9.80    2.60
 -22  -2  12   33.80    4.06
 -22   2  12   31.80    4.40
 -22  -2  12   25.13    3.64
 -22  -2  12   15.25    6.18
 -22   2  12   27.34    9.21
  22  -2 -12   30.46    4.58
  22   2 -12   20.96    3.78
 -22  -2  13   29.88    4.03
 -22   2  13   23.47    4.44
 -22  -2  13   39.72    4.54
 -22  -2  13   28.65    9.11
 -22   2  13   21.91    9.19
  22  -2 -13   41.12    5.26
  22   2 -13   33.88    4.46
 -22  -2  14    4.56    1.61
 -22   2  14    7.63    2.76
 -22  -2  14    6.79    2.28
 -22   2  14    3.25    3.82
 -22  -2  14    2.69    3.17
  22  -2 -14   10.03    2.85
  22   2 -14   11.69    2.75
 -22  -2  15    5.41    1.75
 -22   2  15    0.68    2.25
 -22  -2  15    0.55    1.95
 -22   2  15   -3.32    5.49
 -22  -2  15   -2.74    3.92
  22  -2 -15    1.98    1.89
  22   2 -15    4.46    2.01
 -22  -2  16  539.06   36.50
 -22   2  16  555.88   37.92
 -22  -2  16  539.08   37.17
  22  -2 -16  590.96   37.92
  22   2 -16  600.77   37.44
 -22  -2  17   60.80    6.08
 -22  -2  17   66.20    6.80
 -22   2  17   74.03    7.51
 -22   2  17   68.48   14.73
  22  -2 -17   77.19    7.37
  22   2 -17   70.12    6.79
 -22  -2  18  770.55   48.97
 -22   2  18  659.92   49.19
  22  -2 -18  759.48   49.28
  22   2 -18  791.44   48.97
  22  -2 -19  681.04   45.53
  22   2 -19  662.55   44.98
  22  -2 -20  787.43   54.48
  22   2 -20  848.91   54.33
  22  -2 -21  312.06   22.12
  22   2 -21  294.43   21.61
  22  -2 -22  192.55   14.90
  22   2 -22  191.25   14.58
  22   2 -23   42.98    4.70
  22  -2 -23   32.49    4.50
  22  -2 -24   39.66    4.79
  22   2 -24   43.65    4.64
  22  -2 -25   78.46    6.73
  22   2 -25   63.61    6.16
  22  -2 -26   66.01    5.75
  22   2 -26   53.71    5.29
  22  -2 -27    6.46    1.75
  22   2 -27    5.35    1.58
  22  -2 -28    9.97    2.02
  22   2 -28   13.69    2.00
  22  -2 -29  186.96   13.11
  22   2 -29  188.92   12.93
  22  -2 -30  254.30   18.59
  22   2 -30  308.78   18.59
 -22  -4  -9   51.20    4.01
 -22  -4  -8    2.70    1.23
 -22  -4  -8    2.85    1.00
 -22  -4  -7   90.78    7.18
 -22  -4  -7   83.28    6.57
 -22  -4  -7   89.74    6.72
 -22  -4  -6    5.93    1.61
 -22  -4  -6    3.55    1.43
 -22  -4  -6    6.90    1.62
 -22  -4  -5  335.85   10.25
 -22  -4  -5  331.28    8.65
 -22  -4  -4    5.76    1.77
 -22   4  -4    2.77    1.50
 -22   4  -4    4.46    1.59
 -22  -4  -3  151.87   12.06
 -22   4  -3  180.19   12.11
 -22  -4  -3  143.05   11.57
 -22  -4  -2   50.41    5.19
 -22   4  -2   49.84    5.02
 -22  -4  -2   43.21    4.76
 -22   4  -1   76.44    6.71
 -22  -4  -1   65.49    6.32
 -22   4   0   24.24    3.34
 -22  -4   0   12.10    2.60
 -22  -4   1  405.66   27.79
 -22  -4   2   16.81    2.87
 -22  -4   3  178.49   13.47
 -22  -4   4   13.16    2.63
  22   4  -4   13.20    2.58
 -22  -4   5  465.56   39.99
 -22   4   5  480.54   41.56
 -22  -4   5  534.09   34.54
  22  -4  -5  537.09   35.46
  22   4  -5  497.92   34.39
 -22  -4   6   47.64    9.07
 -22   4   6   53.96   10.43
 -22  -4   6   79.29    6.35
  22  -4  -6   47.63    6.15
  22   4  -6   74.35    6.29
 -22  -4   7   43.05    4.70
 -22   4   7   26.97    8.92
 -22  -4   7   39.99    4.29
  22   4  -7   46.74    4.60
  22  -4  -7   37.98    4.89
 -22  -4   8   92.71    7.76
 -22  -4   8   71.44   11.77
 -22  -4   8   96.05    7.39
  22  -4  -8   83.57    7.96
  22   4  -8   85.65    7.44
 -22  -4   9  428.65   30.53
 -22  -4   9  453.63   37.46
 -22   4   9  404.35   38.52
 -22  -4   9  464.21   30.10
  22  -4  -9  494.73   31.44
  22   4  -9  424.95   30.33
 -22  -4  10    5.94    1.98
 -22   4  10   15.93    2.91
 -22  -4  10    8.75    1.89
 -22  -4  10   -1.85    6.85
 -22   4  10  -11.74   10.81
 -22  -4  10    4.70    1.53
  22  -4 -10   21.86    3.21
  22   4 -10    6.40    1.78
 -22  -4  11  841.05   56.30
 -22   4  11  849.63   56.63
 -22  -4  11  885.17   56.03
 -22  -4  11  888.57   64.56
 -22   4  11  785.13   66.44
  22  -4 -11  835.53   56.75
  22   4 -11  877.53   56.21
 -22  -4  12   12.16    2.54
 -22   4  12    6.34    2.27
 -22  -4  12    9.90    2.26
 -22  -4  12   -2.00    5.74
 -22   4  12   -2.60    7.75
  22  -4 -12    3.25    2.00
  22   4 -12    9.75    2.31
 -22  -4  13 1851.05  120.66
 -22   4  13 1918.37  121.28
 -22  -4  13 1945.89  120.49
 -22  -4  13 1702.61  128.90
 -22   4  13 1798.55  132.72
  22  -4 -13 1902.87  121.16
  22   4 -13 1870.21  120.51
 -22  -4  14   15.50    2.73
 -22   4  14   15.08    3.28
 -22  -4  14    7.81    2.36
  22   4 -14    5.47    2.18
 -22   4  15 1359.66   89.04
 -22  -4  15 1404.98   88.26
  22  -4 -15 1359.82   88.73
  22   4 -15 1351.32   88.17
 -22   4  16   69.62    7.23
 -22  -4  16   80.14    6.79
  22   4 -16   84.76    6.79
 -22   4  17  118.36   10.36
 -22  -4  17  134.49    9.85
  22  -4 -17  104.19    9.63
  22   4 -17  113.28    9.34
 -22   4  18    1.83    1.96
 -22  -4  18    1.76    1.67
  22  -4 -18   -0.47    1.41
  22   4 -18    5.53    1.70
 -22   4  19    9.96    2.98
 -22  -4  19   12.98    2.57
  22  -4 -19    5.47    2.04
  22   4 -19    3.82    1.57
 -22   4  20    8.79    2.82
 -22  -4  20   19.45    3.10
  22  -4 -20    9.15    2.26
  22   4 -20   18.36    2.65
 -22   4  21  155.04   12.62
  22   4 -21  134.97   11.16
  22  -4 -21  141.85   11.48
  22   4 -21  147.71   11.26
 -22   4  22    4.63    2.03
 -22  -4  22    2.53    1.44
  22   4 -22    1.36    1.19
  22  -4 -22   -1.14    1.67
  22   4 -22    1.61    1.25
 -22   4  23  530.77   36.05
  22   4 -23  500.55   34.68
  22  -4 -23  487.75   34.86
  22   4 -23  510.94   34.65
 -22   4  24    1.47    1.86
 -22  -4  24    2.92    1.60
  22   4 -24    0.55    1.13
  22  -4 -24    0.62    1.36
  22   4 -24    2.09    1.26
 -22   4  25 1215.02   78.96
  22   4 -25 1073.14   77.69
  22  -4 -25 1238.54   78.09
  22   4 -25 1192.67   77.81
  22   4 -26   22.57    2.25
  22  -4 -26   18.40    2.28
  22  -4 -27 1025.76   66.36
  22   4 -27 1055.11   66.18
 -22  -6  -8   18.33    1.74
 -22  -6  -7   17.37    1.86
 -22   6  -6    0.19    0.34
 -22  -6  -5   25.87    2.86
 -22   6  -5   27.77    3.06
 -22  -6  -4   17.19    2.27
 -22   6  -4   10.23    2.15
 -22  -6  -4   17.19    2.16
 -22  -6  -3   46.14    4.37
 -22   6  -3   39.62    4.43
 -22  -6  -3   46.96    4.14
 -22  -6  -2   20.66    2.83
 -22  -6  -2   19.16    2.62
 -22   6  -1  114.70    9.10
 -22  -6  -1  107.07    8.53
 -22   6   0   41.43    4.34
 -22  -6   0   30.72    3.59
 -22   6   1   27.07    3.95
 -22  -6   1   44.53    4.11
 -22   6   2  197.54   14.72
 -22  -6   2  197.33   14.20
 -22  -6   3   37.03    3.94
 -22  -6   4  178.97   13.99
 -22  -6   4  206.29   13.98
 -22  -6   5  253.55   18.63
 -22   6   5  264.39   18.98
 -22  -6   5  276.24   18.42
  22   6  -5  263.14   18.00
 -22  -6   6  308.49   21.11
 -22  -6   6  324.93   20.74
  22   6  -6  280.66   20.27
 -22  -6   7  114.97    8.68
 -22  -6   7  106.04    8.06
  22   6  -7   93.65    7.72
 -22  -6   8  421.76   27.18
 -22  -6   8  403.63   26.40
  22   6  -8  374.68   26.22
 -22  -6   9  409.62   25.95
 -22  -6   9  368.23   25.00
  22   6  -9  364.63   24.99
 -22  -6  10  133.99   10.09
  22   6 -10  120.62    9.24
  22   6 -11    2.11    1.18
 -22   6  12   82.32    7.03
  22   6 -12   77.87    6.35
 -22   6  13   92.53    7.78
  22   6 -13   90.50    7.10
 -22   6  14   25.70    3.42
 -22   6  15    4.01    1.61
  22   6 -20  504.35   33.34
  22   6 -21  403.89   26.91
  22   6 -22  107.53    8.16
  22   6 -23  180.83   12.65
  22   6 -24  153.90   10.78
  22   6 -25  117.46    8.30
 -22  -8  -5   10.49    1.17
 -22  -8  -4  220.15   14.51
 -22   8  -3   27.86    2.93
 -22  -8  -3   24.80    2.37
 -22   8  -2  276.59   18.54
 -22  -8  -2  266.76   17.86
 -22   8  -1    2.21    1.28
 -22  -8  -1    0.56    0.77
 -22  -8   0   24.48    2.54
 -22  -8   1   19.23    2.23
 -22   8   2   93.55    7.48
 -22  -8   2   85.88    6.68
 -22   8   3   16.64    2.65
 -22  -8   3   14.13    1.94
 -22   8   4   19.42    2.92
 -22  -8   4   24.13    2.52
 -22   8   5    8.96    2.04
 -22  -8   5    5.45    1.31
 -22  -8   6    0.84    0.99
 -22   8   6    2.59    1.30
 -22  -8   6    1.40    0.81
 -22  -8   7    2.31    1.23
 -22   8   7    1.46    1.33
 -22  -8   7    2.79    0.90
 -22  -8   8    2.95    1.33
 -22   8   8    4.66    1.58
 -22  -8   9    2.70    1.21
 -22   8   9    3.48    1.51
  22   8  -9    4.76    1.05
 -22  -8  10    2.12    1.13
  22   8 -10    1.08    0.78
 -22  -8  11   19.18    2.59
 -22   8  11   21.97    2.75
  22   8 -11   20.69    2.17
 -22  -8  12  392.53   25.14
 -22   8  12  354.90   24.98
 -22  -8  13    5.15    1.43
 -22   8  13    4.61    1.44
 -22  -8  14  234.84   16.64
 -22   8  14  244.82   16.52
 -22  -8  15    9.10    1.72
 -22   8  15    8.45    1.54
 -22   8  15    6.42    1.82
 -22  -8  16   19.71    2.52
 -22   8  16   20.06    2.92
 -22  -8  17    3.57    1.25
  22   8 -17    1.43    0.95
  22   8 -18  191.25   13.22
  22   8 -19   10.33    1.59
  22   8 -20  173.74   11.95
  22   8 -21   16.59    1.90
  22   8 -22    8.89    1.23
  22   8 -23    4.78    0.88
 -22  10   3    4.31    1.06
 -22  10   4    0.61    0.86
 -22  10   5    3.54    1.12
 -22  10   6   46.38    4.01
 -22  10   7   17.69    2.12
 -22  10   8  152.61   10.61
 -22  10   9    1.39    0.78
  22  10  -9    1.55    0.66
  22  10 -10   13.38    1.46
  22  10 -11   36.83    2.99
  22  10 -12   19.80    1.89
  22  10 -13   68.60    4.99
  22  10 -14  114.78    7.85
  22  10 -15   92.89    6.45
 -23  -1  -9   17.19    2.20
 -23  -1  -8   12.79    2.00
 -23   1  -8    8.14    1.84
 -23  -1  -8   12.90    2.06
 -23  -1  -7   35.07    3.81
 -23   1  -7   43.62    4.12
 -23  -1  -7   35.08    3.93
 -23  -1  -6  255.26   18.26
 -23  -1  -6  279.93   18.14
 -23  -1  -6  239.07   18.04
 -23  -1  -5   93.37    8.52
 -23   1  -5  115.75    8.78
 -23  -1  -5  105.97    8.69
 -23  -1  -4  381.08   26.11
 -23   1  -4  354.09   25.77
 -23  -1  -4  403.13   25.64
 -23  -1  -4  366.07   25.94
 -23  -1  -3   45.67    5.18
 -23   1  -3   49.35    5.21
 -23  -1  -3   53.08    5.41
 -23   1  -2   44.88    4.78
 -23  -1  -2   35.01    4.61
 -23   1  -2   52.23    4.15
 -23  -1  -2   25.59    4.13
 -23  -1  -1   15.47    2.97
 -23   1  -1   19.71    2.61
 -23  -1  -1   12.06    2.68
 -23  -1  -1    8.99    2.64
 -23  -1   0  652.52   43.70
 -23   1   0  630.92   43.39
 -23  -1   0  686.06   43.54
 -23  -1   0  643.39   43.74
 -23   1   1    9.71    2.47
 -23  -1   1   16.15    2.97
 -23  -1   1   13.13    3.02
 -23   1   2  447.00   31.25
 -23  -1   2  473.35   31.46
 -23   1   3   70.43    6.42
 -23  -1   3   51.48    9.98
 -23   1   3   55.16   10.58
 -23  -1   3   66.04    6.35
 -23   1   4   19.75    3.04
 -23  -1   4   16.27    5.70
 -23   1   4   10.92    5.24
 -23  -1   4   21.14    3.28
 -23   1   5   27.79    3.49
 -23  -1   5   20.91    6.39
 -23   1   5   33.74    8.02
 -23  -1   5   17.63    3.23
 -23  -1   6  144.40   17.40
 -23   1   6  120.89   16.70
 -23  -1   6  126.99   10.37
 -23  -1   7   26.68    7.89
 -23   1   7   28.86    8.48
 -23  -1   7   43.51    4.50
  23  -1  -7   29.08    4.69
 -23  -1   8   80.97    7.51
 -23  -1   8   82.17    7.64
 -23  -1   8   96.54   14.22
 -23   1   8   87.27   14.25
 -23  -1   8   90.55    7.65
  23  -1  -8   88.48    8.49
 -23  -1   9    1.36    1.37
 -23  -1   9    5.38    1.91
 -23  -1   9    2.39    5.22
 -23   1   9   -2.60    4.30
 -23  -1   9    5.43    1.63
  23  -1  -9    2.56    2.13
 -23  -1  10   10.84    2.24
 -23  -1  10    4.48    1.97
 -23  -1  10    2.45    4.07
 -23   1  10    2.67    4.96
  23  -1 -10    6.53    2.51
 -23  -1  11    9.39    2.19
 -23  -1  11   11.15    2.38
 -23  -1  11    2.55    5.60
 -23   1  11    8.36    6.13
  23  -1 -11   12.59    3.07
 -23  -1  12    1.77    1.43
 -23  -1  12    2.58    1.71
 -23  -1  12    2.64    4.88
 -23   1  12    2.90    5.36
  23  -1 -12    6.71    2.61
 -23  -1  13    3.06    1.49
 -23  -1  13   -0.52    1.50
 -23  -1  13    2.71    4.47
 -23   1  13   -2.98    4.27
  23  -1 -13    4.04    2.43
 -23  -1  14   32.61    3.80
 -23  -1  14   20.57    3.63
 -23  -1  14   30.46    8.41
 -23   1  14   12.22    6.39
  23  -1 -14   28.30    4.47
 -23  -1  15    7.13    2.01
 -23  -1  15    8.86    2.61
 -23   1  15    3.16    3.70
 -23  -1  15    8.56    5.28
  23  -1 -15    0.67    2.03
 -23  -1  16   60.88    5.94
 -23  -1  16   73.48    6.98
 -23   1  16   57.76   13.34
  23  -1 -16   72.27    7.27
 -23  -1  17  338.03   22.66
 -23  -1  17  340.51   23.75
  23  -1 -17  295.30   23.72
 -23  -1  18   20.46    3.81
  23  -1 -18   33.92    4.70
 -23  -1  19    0.58    1.86
  23  -1 -19    3.82    2.04
 -23  -1  20   45.61    5.31
  23  -1 -20   35.74    5.17
  23  -1 -21   78.36    7.78
  23  -1 -22    2.83    2.05
  23  -1 -23   18.61    3.29
  23  -1 -24  292.89   20.99
  23  -1 -25    2.68    1.82
  23  -1 -26  500.15   33.56
 -23  -1  27   28.51    3.41
  23  -1 -27   30.01    3.48
  23  -1 -28  128.83    9.67
  23  -1 -29   27.38    2.95
  23  -1 -30   34.63    3.04
  23   1 -30   30.70    2.88
 -23  -3  -7  200.98   13.61
 -23  -3  -7  183.22   13.00
 -23  -3  -6   96.28    7.06
 -23  -3  -6   85.82    6.44
 -23  -3  -6   85.34    6.42
 -23  -3  -5  416.85   28.00
 -23  -3  -5  394.97   27.42
 -23   3  -5  450.39   27.85
 -23  -3  -5  402.12   27.44
 -23  -3  -4   23.17    2.78
 -23   3  -4    0.25    0.29
 -23  -3  -3   72.79    6.66
 -23   3  -3   70.48    6.05
 -23   3  -2    3.11    1.43
 -23  -3  -2   -0.37    1.23
 -23   3  -1   20.57    2.85
 -23  -3  -1   16.24    2.80
 -23   3   0  210.66   15.37
 -23  -3   0  211.63   15.50
 -23   3   1  190.78   14.63
 -23  -3   1  230.27   15.48
 -23  -3   2    6.11    1.91
 -23  -3   3    7.02    2.00
 -23  -3   4    6.11    1.88
 -23  -3   5   21.39    3.30
 -23  -3   5   25.36    3.29
  23  -3  -5   20.84    3.75
  23   3  -5   16.73    3.00
 -23  -3   6   51.35    5.19
 -23  -3   6   48.21    4.99
  23   3  -6   41.58    4.77
  23  -3  -6   38.96    5.45
 -23  -3   7    3.27    1.55
 -23  -3   7    1.84    4.04
 -23   3   7    8.90    5.83
 -23  -3   7    6.09    1.82
  23  -3  -7   13.69    2.98
  23   3  -7   14.49    2.63
 -23  -3   8    9.34    2.36
 -23  -3   8    9.48    5.49
 -23   3   8    6.95    5.80
 -23  -3   8   12.13    2.36
  23   3  -8   14.15    2.57
 -23  -3   9   38.64    4.42
 -23   3   9   28.97    8.98
 -23  -3   9   42.33    4.17
  23   3  -9   37.89    4.31
  23  -3  -9   34.39    4.82
 -23  -3  10   82.54    6.59
 -23   3  10   48.01    5.94
 -23  -3  10   71.56    6.13
 -23  -3  10   54.90   10.95
 -23   3  10   27.80    9.46
 -23  -3  10   68.85    5.84
  23  -3 -10   55.04    6.46
  23   3 -10   63.91    6.13
 -23  -3  11  161.90   12.40
 -23   3  11  150.28   12.67
 -23  -3  11  176.55   12.40
 -23  -3  11  173.67   19.67
 -23   3  11  160.05   20.71
 -23  -3  11  152.32   11.70
  23  -3 -11  160.72   13.13
  23   3 -11  153.00   12.30
 -23  -3  12   75.62    7.19
 -23   3  12  110.82    8.46
 -23  -3  12   71.31    6.88
 -23  -3  12   39.12   10.25
 -23   3  12   74.25   14.51
  23  -3 -12  119.12    8.85
  23   3 -12   67.69    6.95
 -23  -3  13   86.85    7.60
 -23   3  13   90.85    8.20
 -23  -3  13   77.43    7.37
 -23  -3  13   80.42   13.35
 -23   3  13   79.85   14.55
  23  -3 -13   90.30    8.36
  23   3 -13   83.61    7.61
 -23  -3  14   19.76    2.97
 -23   3  14    7.61    2.58
 -23  -3  14   17.00    2.82
  23  -3 -14    4.82    2.30
  23   3 -14   15.95    2.79
 -23  -3  15  116.67    9.38
 -23   3  15  102.56    9.87
 -23  -3  15  125.98    9.61
  23  -3 -15  111.07    9.94
  23   3 -15  106.51    9.32
 -23  -3  16   12.11    2.55
 -23   3  16   19.89    3.53
 -23  -3  16   16.17    2.98
  23  -3 -16   23.91    3.50
  23   3 -16   10.65    2.36
 -23  -3  17   55.46    5.68
 -23   3  17   54.13    6.51
 -23  -3  17   67.56    6.24
  23  -3 -17   65.40    6.63
  23   3 -17   59.69    5.92
 -23  -3  18   16.56    2.64
 -23   3  18    8.94    3.04
 -23  -3  18   10.92    2.54
  23  -3 -18   10.51    2.58
  23   3 -18   14.30    2.75
 -23  -3  19  839.89   57.58
 -23   3  19  871.71   59.11
 -23  -3  19  966.97   58.46
  23  -3 -19  884.28   58.52
  23   3 -19  887.77   57.98
 -23  -3  20   99.49    7.97
 -23   3  20   85.49    8.96
 -23  -3  20  120.07    8.91
  23  -3 -20   78.34    8.14
  23   3 -20  102.30    8.26
 -23  -3  21  640.56   45.05
 -23   3  21  760.18   47.22
 -23  -3  21  796.93   46.35
  23   3 -21  613.61   44.98
  23  -3 -21  721.62   46.15
  23   3 -21  733.35   45.73
 -23  -3  22    0.89    1.07
 -23   3  22    0.61    1.90
 -23  -3  22    4.07    1.88
  23   3 -22    6.28    1.51
  23  -3 -22    5.92    2.10
  23   3 -22    0.38    1.46
 -23   3  23  196.91   16.27
 -23  -3  23  246.39   16.00
  23  -3 -23  202.44   15.52
  23   3 -23  211.16   15.25
 -23   3  24    4.78    2.18
 -23  -3  24    5.54    1.85
  23  -3 -24    6.08    1.84
  23   3 -24    5.64    1.48
 -23   3  25   51.50    5.60
 -23  -3  25   51.50    5.11
  23  -3 -25   58.41    5.14
  23   3 -25   49.60    4.64
 -23   3  26  133.53   11.79
 -23  -3  26  179.32   11.76
  23  -3 -26  150.62   11.33
  23   3 -26  161.26   11.16
  23  -3 -27  155.58   11.03
  23   3 -27  153.83   10.75
  23  -3 -28    4.72    1.14
  23   3 -28    1.55    0.72
 -23  -5  -7  466.53   30.01
 -23  -5  -6   91.00    6.65
 -23   5  -5    2.22    0.59
  23   5   5    0.13    0.19
 -23  -5  -4    5.90    1.62
  23   5   4    0.52    0.48
 -23  -5  -3  664.84   12.44
 -23   5  -3  693.54   12.44
 -23  -5  -3  655.37   11.17
 -23  -5  -2    6.29    1.70
 -23   5  -2    9.91    2.00
 -23   5  -2    5.14    1.27
 -23  -5  -2    4.34    1.52
  23  -5   2   11.65    2.10
  23   5   2    3.92    1.28
 -23  -5  -1   34.34    3.82
 -23   5  -1   31.78    3.83
 -23  -5  -1   32.03    3.59
  23   5   1   36.04    3.49
  23  -5   1   30.76    3.80
 -23   5   0  105.05    7.96
 -23  -5   0   84.87    7.22
  23  -5   0   87.86    7.49
  23   5   0   85.02    6.95
 -23   5   1   16.69    2.91
 -23  -5   1   20.10    2.79
  23  -5  -1   16.22    2.88
  23   5  -1   20.49    2.59
 -23   5   2   35.11    4.12
  23   5  -2   30.38    3.51
  23  -5  -2   26.91    3.82
 -23   5   3   81.07    7.06
 -23  -5   3   84.34    6.65
  23  -5  -3   68.64    6.78
  23   5  -3   70.88    6.27
 -23  -5   4    5.26    1.57
  23  -5  -4    7.47    2.18
  23   5  -4    4.47    1.51
 -23  -5   5  332.36   23.96
 -23  -5   5  366.15   23.81
  23  -5  -5  341.01   24.21
  23   5  -5  351.20   23.64
 -23  -5   6    4.37    1.71
  23   5  -6    2.65    1.37
 -23  -5   7  611.82   39.61
  23  -5  -7  556.19   40.07
  23   5  -7  633.28   39.73
 -23  -5   8   75.64    6.30
  23  -5  -8   80.99    7.03
  23   5  -8   70.18    6.27
 -23  -5   9  128.32    9.67
  23  -5  -9  124.32   10.35
  23   5  -9  135.94    9.96
 -23  -5  10   11.29    2.39
 -23  -5  10   12.56    1.95
  23  -5 -10   14.29    2.74
  23   5 -10   15.42    2.30
 -23  -5  11   78.79    7.30
  23  -5 -11   84.48    7.48
  23   5 -11   92.38    7.15
 -23  -5  12   51.40    5.05
  23  -5 -12   48.44    5.04
  23   5 -12   42.99    4.42
 -23  -5  13  148.09   10.74
  23  -5 -13  122.94   10.46
  23   5 -13  133.87   10.12
 -23  -5  14    2.02    1.46
 -23   5  14    0.41    1.40
 -23  -5  14    1.54    1.11
  23  -5 -14    2.41    1.41
  23   5 -14    3.20    1.16
 -23  -5  15   72.68    6.25
 -23   5  15   55.21    5.91
 -23  -5  15   73.44    5.87
  23  -5 -15   58.12    5.91
  23   5 -15   69.28    5.78
 -23  -5  16   71.68    6.76
 -23   5  16   85.90    7.22
 -23  -5  16   86.58    6.69
  23  -5 -16   80.58    6.93
  23   5 -16   71.95    6.43
 -23  -5  17    6.38    1.75
 -23  -5  17    4.64    1.45
  23  -5 -17    3.97    1.55
  23   5 -17    2.35    1.10
 -23  -5  18   10.80    2.16
 -23   5  18    7.38    2.02
 -23  -5  18   14.97    2.21
  23  -5 -18   10.99    2.01
  23   5 -18   12.91    2.01
 -23   5  19   58.87    5.37
  23  -5 -19   50.92    4.90
  23   5 -19   48.61    4.54
 -23   5  20    2.27    1.34
  23   5 -20    3.14    1.28
  23  -5 -20    2.37    1.28
  23   5 -20    2.69    1.12
 -23   5  21   35.92    4.13
  23   5 -21   42.89    4.06
  23  -5 -21   48.00    4.11
  23   5 -21   38.53    3.64
 -23  -5  22   48.86    3.35
  23   5 -22   43.88    3.25
  23  -5 -22   39.28    2.97
 -23  -5  23   35.48    2.61
  23   5 -23   31.43    2.54
  23   5 -24   45.86    2.72
  23   5 -24   -0.13    0.22
  23   5 -25  253.83   16.80
 -23  -7  -4   32.77    2.77
 -23   7  -3   15.56    1.94
 -23  -7  -3    5.82    1.11
 -23   7  -2  500.03   30.30
 -23  -7  -2  431.05   29.56
 -23  -7  -1  166.85   11.46
 -23   7  -1  147.40   11.74
 -23  -7  -1  169.14   11.32
 -23  -7   0  451.58   30.66
 -23   7   0  521.77   31.39
 -23  -7   0  451.36   30.46
 -23   7   1  131.12   10.87
 -23  -7   1  156.54   10.46
 -23  -7   2  640.40   41.45
 -23  -7   3   93.70    7.15
 -23   7   4  221.24   15.90
 -23  -7   4  219.72   15.11
 -23   7   5   17.52    2.77
 -23  -7   5   13.12    1.93
 -23  -7   6   59.47    4.99
 -23   7   6   49.34    5.11
 -23  -7   6   49.74    4.42
 -23  -7   7    7.02    1.73
 -23   7   7    6.55    1.80
 -23  -7   7    7.95    1.41
 -23  -7   8  139.35   10.17
 -23   7   8  138.74   10.44
 -23  -7   8  128.04    9.41
 -23  -7   9    9.21    1.90
 -23   7   9    7.82    2.02
 -23  -7  10    5.63    1.56
 -23   7  10    7.99    1.87
 -23  -7  11   77.71    6.36
 -23   7  11   68.41    6.26
 -23  -7  12   96.07    7.76
 -23   7  12   96.73    7.78
 -23  -7  13  111.81    8.81
 -23   7  13  114.63    8.81
 -23   7  14    1.22    1.19
 -23   7  15    1.70    1.13
 -23   7  16   65.18    5.42
 -23  -7  17    9.22    1.90
 -23   7  17   13.55    1.83
 -23  -7  18   76.04    6.16
  23   7 -18   72.89    5.97
 -23  -7  19   49.05    4.53
  23   7 -19   55.49    4.54
 -23  -7  20  175.19   12.46
  23   7 -20  179.42   12.31
  23   7 -21  291.27   19.36
  23   7 -22  212.41   14.27
  23   7 -23   36.76    3.12
 -23   9   2    1.65    1.09
 -23   9   3   37.01    3.61
 -23   9   4  147.19   10.63
 -23   9   5  276.48   18.76
 -23   9   6  291.37   17.06
  23   9  -6  232.02   15.85
 -23   9   7   69.35    4.54
  23   9  -7   36.33    3.12
 -23   9   8  417.54   27.57
 -23   9   9  136.74    9.90
 -23   9  10  243.31   16.51
 -23   9  11    5.40    1.27
 -23   9  12  332.19   21.89
  23   9 -14  433.29   28.10
  23   9 -19    1.33    0.51
 -24   0  -7    7.11    1.66
 -24   0  -6 2229.99  141.41
 -24   0  -5   11.80    2.51
 -24   0  -5   14.43    2.51
 -24   0  -4 1260.43   80.93
 -24   0  -4 1252.89   81.00
 -24   0  -3    6.51    2.17
 -24   0  -3    7.26    2.33
 -24   0  -2  553.29   36.59
 -24   0  -2  536.78   36.68
 -24   0  -1    1.34    1.28
 -24   0   0  102.80    8.75
 -24   0   1    0.46    1.38
 -24   0   2   13.10    2.55
 -24   0   3    4.73    1.86
 -24   0   4  799.51   52.74
  24   0  -6  980.93   64.51
 -24   0   7    2.21    5.21
  24   0  -7   14.29    3.00
 -24   0   8 2535.34  174.05
  24   0  -8 2588.89  164.79
 -24   0   9    9.39    2.27
 -24   0   9    2.37    6.80
  24   0  -9    9.78    2.62
 -24   0  10  454.10   31.96
 -24   0  10  428.51   40.46
  24   0 -10  492.35   32.59
 -24   0  11    9.23    2.28
  24   0 -11    8.96    2.33
 -24   0  12  770.61   53.02
 -24   0  12  730.23   62.84
  24   0 -12  860.11   53.81
 -24   0  13    1.06    1.64
 -24   0  13    2.70    5.47
  24   0 -13    2.46    1.61
 -24   0  14   55.24    6.26
  24   0 -14   69.23    6.85
 -24   0  15    2.20    1.76
  24   0 -15   -1.24    2.23
 -24   0  16  160.35   13.31
  24   0 -16  175.60   13.77
 -24   0  17   -0.57    2.11
  24   0 -17    3.07    2.27
 -24   0  18  238.47   17.26
  24   0 -18  211.16   17.09
 -24   0  19    1.77    2.07
  24   0 -19    1.18    1.69
 -24   0  20  126.91   10.67
  24   0 -20  120.97   10.60
 -24   0  21    2.80    1.74
  24   0 -21    2.20    2.04
 -24   0  22  421.20   29.12
  24   0 -22  414.86   29.03
 -24   0  23    1.01    1.87
  24   0 -23    1.96    1.81
 -24   0  24   56.44    5.89
  24   0 -24   57.62    5.66
 -24   0  25    1.72    1.51
  24   0 -25    1.62    1.68
 -24   0  26  386.92   26.42
  24   0 -26  387.89   26.24
 -24   0  27   -2.36    1.74
  24   0 -27    0.61    1.13
  24   0 -28  118.54    8.82
  24   0 -29    1.81    0.93
 -24  -2  -6    3.02    1.14
 -24   2  -6    1.31    1.11
 -24  -2  -5  224.89   16.98
 -24   2  -5  284.53   17.51
 -24  -2  -4  114.74    8.82
 -24   2  -4  118.70    9.06
 -24  -2  -4  112.73    8.70
 -24  -2  -3    3.56    1.55
 -24  -2  -2   56.58    4.40
 -24   2  -2   -0.25    0.42
 -24  -2  -1  203.68   15.66
 -24   2  -1  220.95   15.40
 -24   2  -1  222.67   15.08
 -24  -2  -1  203.69   15.30
 -24  -2   0  638.61   39.17
 -24   2   0  579.89   38.19
 -24  -2   0  654.07   38.87
 -24  -2   1 1285.06   83.40
 -24   2   1 1282.12   82.88
 -24  -2   1 1298.90   83.14
 -24   2   2  733.35   52.79
 -24  -2   2  928.90   53.60
 -24   2   3  685.82   44.33
 -24  -2   3  659.26   44.61
 -24   2   4  385.13   28.89
 -24  -2   4  510.57   29.90
 -24  -2   5  297.34   20.25
  24  -2  -5  274.26   20.80
  24   2  -5  278.31   20.18
 -24  -2   6  151.29   11.66
  24  -2  -6  165.35   12.72
  24   2  -6  139.98   11.66
 -24  -2   7   20.79    3.25
  24   2  -7   29.45    3.67
  24  -2  -7   33.14    4.23
 -24  -2   8  159.58   12.16
 -24  -2   8  155.52   11.84
  24  -2  -8  149.91   12.69
  24   2  -8  156.50   12.20
 -24  -2   9    7.29    2.03
 -24  -2   9   10.48    2.09
  24  -2  -9    4.33    1.81
  24   2  -9    3.86    1.54
 -24  -2  10   10.01    2.35
 -24   2  10   12.50    2.52
 -24  -2  10   11.39    2.36
 -24  -2  10    7.44    1.96
  24   2 -10    8.84    2.28
 -24  -2  11  667.35   43.22
 -24   2  11  666.77   43.70
 -24  -2  11  606.04   42.97
  24  -2 -11  683.23   44.27
  24   2 -11  636.97   43.35
 -24  -2  12  337.43   22.38
 -24   2  12  283.28   22.47
 -24  -2  12  343.36   22.46
  24  -2 -12  277.11   22.80
  24   2 -12  336.38   22.64
 -24  -2  13  994.54   65.72
 -24   2  13  945.70   66.22
 -24  -2  13 1012.52   65.90
  24  -2 -13 1120.80   67.19
  24   2 -13 1009.21   66.12
 -24  -2  14  324.52   21.95
 -24   2  14  275.98   22.28
 -24  -2  14  336.83   22.23
  24  -2 -14  295.24   22.70
  24   2 -14  318.93   22.29
 -24  -2  15  923.22   61.16
 -24   2  15  904.69   61.97
 -24  -2  15  933.08   61.48
  24  -2 -15  964.26   62.44
  24   2 -15  978.11   61.78
 -24  -2  16  257.62   18.04
 -24   2  16  227.14   18.66
 -24  -2  16  268.23   18.55
  24  -2 -16  250.19   19.04
  24   2 -16  253.35   18.50
 -24  -2  17   53.03    5.58
 -24   2  17   62.81    6.67
 -24  -2  17   57.66    6.09
  24  -2 -17   66.34    6.74
  24   2 -17   71.69    6.48
 -24  -2  18  129.35   10.49
 -24   2  18  130.47   11.54
 -24  -2  18  140.05   11.20
  24  -2 -18  148.88   11.83
  24   2 -18  145.71   11.26
 -24  -2  19  119.59   10.60
 -24   2  19  147.47   12.21
 -24  -2  19  156.16   11.71
  24  -2 -19  159.39   12.18
  24   2 -19  160.16   11.70
 -24   2  20   95.78    8.91
 -24  -2  20  101.37    8.45
  24  -2 -20  110.56    8.99
  24   2 -20   80.07    7.93
 -24   2  21  137.19   11.45
 -24  -2  21  125.37   10.74
  24  -2 -21  160.21   11.52
  24   2 -21  126.10   10.59
 -24   2  22  255.13   19.11
 -24  -2  22  279.93   18.75
  24  -2 -22  242.55   18.54
  24   2 -22  247.63   18.18
 -24   2  23  162.86   13.11
 -24  -2  23  157.10   12.42
  24  -2 -23  172.01   12.74
  24   2 -23  160.53   12.19
 -24   2  24   89.81    8.70
 -24  -2  24  111.04    8.63
  24  -2 -24  108.03    8.61
  24   2 -24   96.55    8.08
 -24   2  25   59.30    5.72
 -24  -2  25   43.02    4.93
  24  -2 -25   63.25    5.36
  24   2 -25   49.68    4.78
 -24   2  26  159.67   12.26
 -24  -2  26  171.27   12.00
  24  -2 -26  165.02   11.94
  24   2 -26  154.73   11.54
  24  -2 -27    2.70    1.17
  24   2 -27    1.79    0.90
  24  -2 -28   58.90    4.69
  24   2 -28   54.50    4.44
 -24  -4  -6   45.04    3.68
 -24  -4  -5 1618.30   94.31
  24  -4   5 1448.95   94.37
  24   4   5 1413.98   94.03
 -24  -4  -4   11.67    2.14
  24  -4   4    8.47    1.87
  24   4   4    8.68    1.70
 -24  -4  -3  923.02   14.54
 -24  -4  -3  915.14   11.70
  24  -4   3  918.36   14.70
  24   4   3  891.35   12.16
 -24  -4  -2    3.82    1.50
 -24   4  -2    2.33    1.28
 -24  -4  -2    0.71    1.37
 -24   4  -2    0.86    1.50
 -24  -4  -2    1.98    1.24
  24  -4   2    0.37    1.54
  24   4   2    3.62    1.25
 -24   4  -1   28.05    3.25
 -24  -4  -1   29.77    3.22
  24  -4   1   20.01    3.29
  24   4   1   19.42    2.77
 -24  -4   0   53.99    5.22
 -24   4   0   47.50    4.90
 -24  -4   0   62.88    5.14
  24   4   0   59.37    4.89
 -24   4   1  125.29    9.12
 -24  -4   1  110.94    8.76
  24  -4  -1  100.53    9.15
  24   4  -1  107.22    8.57
 -24   4   2    3.20    1.57
 -24  -4   2    3.55    1.57
  24  -4  -2    0.96    1.65
  24   4  -2    4.97    1.54
 -24  -4   3  156.29   11.09
  24  -4  -3  140.15   11.55
  24   4  -3  137.53   10.80
 -24  -4   4    7.61    1.90
  24  -4  -4    5.56    1.97
  24   4  -4    9.12    1.94
 -24  -4   5  228.95   15.78
  24  -4  -5  216.98   16.47
  24   4  -5  213.20   15.66
 -24  -4   6    4.58    1.97
 -24  -4   6    7.39    1.80
  24  -4  -6    3.11    2.08
  24   4  -6    4.74    1.68
 -24  -4   7  764.04   51.64
 -24  -4   7  785.54   51.23
  24  -4  -7  832.89   52.43
  24   4  -7  779.94   51.38
 -24  -4   8   74.97    6.64
 -24  -4   8   70.48    6.19
  24  -4  -8   59.15    6.55
  24   4  -8   81.49    6.52
 -24  -4   9  565.39   38.14
 -24  -4   9  585.03   37.56
  24  -4  -9  585.71   38.77
  24   4  -9  550.83   37.81
 -24  -4  10    7.21    2.04
 -24  -4  10    6.76    1.61
  24  -4 -10   15.04    2.84
  24   4 -10   13.19    2.17
 -24  -4  11   98.59    8.59
  24  -4 -11   99.39    8.97
  24   4 -11  115.30    8.64
 -24  -4  12    6.72    2.08
  24  -4 -12    8.64    2.09
  24   4 -12   11.66    1.98
 -24  -4  13   36.59    4.18
 -24  -4  13   34.35    3.85
 -24   4  13   35.16    4.38
  24   4 -13   36.26    4.00
  24  -4 -13   32.02    4.30
 -24  -4  14   16.79    2.83
 -24   4  14   19.17    3.18
 -24  -4  14   16.69    2.66
  24  -4 -14   24.03    3.44
  24   4 -14   22.17    2.94
 -24  -4  15   47.77    4.63
 -24   4  15   46.28    4.99
 -24  -4  15   38.32    4.25
  24  -4 -15   44.58    4.92
  24   4 -15   34.93    4.14
 -24  -4  16   29.63    3.41
 -24   4  16   17.75    3.24
 -24  -4  16   28.09    3.30
  24  -4 -16   19.52    3.25
  24   4 -16   23.46    3.07
 -24  -4  17   25.55    3.44
 -24  -4  17   28.84    3.60
  24   4 -17   29.41    3.52
  24  -4 -17   33.22    4.01
 -24  -4  18  125.28    9.37
 -24   4  18  100.17    9.58
 -24  -4  18  141.40    9.54
  24  -4 -18  101.07    9.34
  24   4 -18  120.10    9.16
 -24  -4  19  481.01   33.02
 -24   4  19  503.09   33.93
 -24  -4  19  534.62   33.32
  24  -4 -19  493.31   33.47
  24   4 -19  486.12   32.97
 -24  -4  20    7.16    1.58
 -24   4  20    3.30    1.80
 -24  -4  20    8.53    1.90
  24   4 -20    8.72    1.72
  24  -4 -20    3.84    1.64
  24   4 -20    9.32    1.76
 -24  -4  21  167.01   12.99
 -24   4  21  198.89   14.17
  24   4 -21  173.92   13.01
  24  -4 -21  162.17   13.30
  24   4 -21  197.90   13.21
 -24  -4  22   13.70    1.93
 -24   4  22    5.05    1.91
 -24  -4  22   11.36    2.18
  24   4 -22   10.21    1.70
  24  -4 -22    3.22    1.54
  24   4 -22    7.10    1.59
 -24   4  23  410.80   27.64
 -24  -4  23  453.76   27.26
  24   4 -23  364.72   26.58
  24  -4 -23  423.26   27.16
  24   4 -23  410.27   26.78
  24  -4 -24    7.84    1.43
  24   4 -24    3.25    0.87
  24  -4 -25  462.80   29.68
  24   4 -25  449.44   29.38
  24   4 -26    2.74    0.68
 -24  -6  -4  175.14   11.75
 -24   6  -3    1.71    0.82
 -24  -6  -3    0.16    0.64
 -24   6  -2   34.13    3.38
 -24  -6  -2   31.73    3.02
 -24  -6  -1  184.11   13.42
 -24   6  -1  190.06   13.65
 -24  -6  -1  202.68   13.29
 -24  -6   0  233.40   17.39
 -24  -6   0  234.72   17.14
 -24   6   1 1252.56   75.52
 -24  -6   1 1121.72   74.72
 -24   6   2  461.06   25.76
 -24  -6   2  328.31   24.51
 -24   6   3  275.75   18.99
 -24  -6   3  265.49   18.26
 -24  -6   4   21.20    2.56
 -24  -6   5  190.35   13.30
 -24   6   6  118.15    9.69
 -24  -6   6  125.07    9.01
 -24  -6   7   13.48    2.27
 -24  -6   7   10.89    1.74
 -24  -6   8  108.94    8.37
 -24   6   8  115.96    8.76
 -24  -6   8   95.88    7.64
 -24  -6  13   93.17    7.65
 -24  -6  14  117.15    9.13
 -24  -6  15  412.43   27.69
 -24  -6  16   43.05    4.33
 -24  -6  17    9.24    1.91
 -24  -6  18   87.66    7.04
 -24  -6  19  157.08   11.24
  24   6 -19  154.02   11.06
 -24  -6  20   29.36    3.22
  24   6 -20   38.15    3.36
 -24  -6  21    5.18    1.34
  24   6 -21    4.16    1.10
  24   6 -22  170.05   11.65
  24   6 -23   19.10    2.01
 -24   8   0   83.04    6.31
 -24   8   1    3.77    1.24
 -24  -8   1    5.44    0.89
 -24  -8   2  296.95   19.30
 -24  -8   3    7.35    1.06
 -24   8   4   34.18    3.31
 -24  -8   4   25.20    2.37
 -24   8   5   15.92    2.58
 -24  -8   5   27.72    2.22
 -24   8   6  858.77   55.49
 -24   8   7   34.69    3.75
 -24   8   8 2157.02  136.87
 -24  -8   9   34.38    2.99
 -24   8   9   16.26    2.68
 -24  -8  10  450.17   30.07
 -24   8  10  471.55   30.39
 -24  -8  11    2.35    1.01
 -24   8  11    0.27    1.20
 -24  -8  12   26.19    2.90
 -24   8  12   34.03    3.20
 -24  -8  13    2.82    1.02
 -24   8  13    1.41    0.98
 -24  -8  14    5.78    1.33
 -24   8  14   10.73    1.51
 -24  -8  15   16.45    2.03
 -24   8  15   11.88    1.72
  24   8 -16   63.22    4.92
  24   8 -17   25.03    2.44
  24   8 -18  277.60   18.28
  24   8 -19   24.14    2.25
  24   8 -20   99.59    6.92
 -25   1  -5   21.09    2.24
 -25  -1  -5    3.99    1.33
 -25  -1  -4 1099.12   72.42
 -25  -1  -4 1165.62   72.28
 -25   1  -4 1117.29   72.32
 -25  -1  -3  141.39   10.71
 -25  -1  -2  345.76   23.31
 -25   1  -2  331.91   23.01
 -25  -1  -1   31.99    3.75
 -25   1  -1   23.59    3.23
 -25  -1   0  145.72    6.65
 -25   1   0  132.92    6.07
 -25   1   1   63.17    5.54
 -25   1   1   59.30    4.91
 -25  -1   2  530.74   33.89
 -25   1   2  458.41   33.32
 -25  -1   2  522.68   33.69
 -25  -1   3  336.50   24.62
 -25   1   3  393.76   24.62
 -25  -1   3  335.91   24.47
 -25  -1   4  125.37   10.02
 -25   1   4  131.43    9.80
 -25  -1   4  117.72    9.77
  25  -1  -4  108.14    9.91
 -25   1   5    7.47    2.07
  25  -1  -5    4.62    2.16
 -25   1   6  411.40   28.11
  25  -1  -6  420.81   28.91
 -25   1   7  334.48   22.42
  25  -1  -7  308.75   23.08
 -25   1   8 1351.23   83.26
  25  -1  -8 1213.06   84.03
  25  -1  -9  206.42   15.89
  25  -1 -10  239.44   18.01
 -25  -1  11  142.49   10.50
  25  -1 -11  108.93   10.47
 -25  -1  12  232.53   17.84
  25  -1 -12  270.13   18.86
 -25  -1  13   87.45    8.18
 -25  -1  13   95.37    8.58
 -25  -1  14 1120.31   69.02
 -25  -1  14 1003.30   69.34
  25  -1 -14 1062.49   70.13
 -25  -1  15    3.64    1.69
  25  -1 -15    5.36    2.49
 -25  -1  16  418.43   28.77
  25  -1 -16  413.72   29.27
 -25  -1  17   38.51    4.82
  25  -1 -17   40.92    5.12
 -25  -1  18   13.96    2.77
  25  -1 -18   13.15    3.00
 -25  -1  19  123.79   10.58
  25  -1 -19  139.60   11.14
 -25  -1  20  187.86   13.91
  25  -1 -20  174.08   14.08
 -25  -1  21   52.55    5.55
  25  -1 -21   54.55    5.77
 -25  -1  22   35.60    4.28
  25  -1 -22   30.73    4.17
 -25  -1  23    6.50    1.95
  25  -1 -23    7.56    1.96
 -25  -1  24    6.72    1.89
  25  -1 -24   13.28    2.38
 -25  -1  25    2.35    1.04
  25  -1 -25   -0.36    1.29
 -25   1  26   65.67    6.15
 -25  -1  26   80.17    6.20
  25  -1 -26   69.65    6.06
  25  -1 -27   85.83    6.76
  25  -1 -28    4.48    1.14
  25   1 -28    6.66    1.24
  25  -3   5  338.55   20.75
  25   3   5  291.01   20.33
  25  -3   4   34.61    3.73
  25   3   4   43.39    3.59
 -25  -3  -3   57.21    5.05
 -25   3  -3   75.38    5.58
  25  -3   3   75.13    5.85
  25   3   3   56.24    5.06
 -25  -3  -2   16.35    2.30
  25  -3   2   22.22    2.92
  25   3   2   15.56    2.27
  25  -3   1  226.46   12.55
  25   3   1  213.68   11.62
 -25  -3   0  150.19   10.48
 -25   3   0  120.37    9.71
 -25  -3   0  151.99   10.20
  25   3   0  144.80   10.01
 -25  -3   1 1607.81  102.15
 -25   3   1 1757.69  101.90
 -25  -3   1 1613.73  101.84
  25  -3  -1 1599.87  102.47
  25   3  -1 1429.07  101.54
 -25  -3   2  369.82   23.22
 -25   3   2  302.81   22.47
 -25  -3   2  369.04   22.82
  25   3  -2  362.75   22.70
 -25  -3   3  604.08   38.19
  25  -3  -3  619.66   38.99
  25   3  -3  525.80   37.86
 -25  -3   4    7.63    1.85
  25  -3  -4    8.10    2.44
  25   3  -4    6.12    1.69
 -25  -3   5    3.99    1.49
  25  -3  -5    4.14    1.93
  25   3  -5    4.79    1.58
 -25  -3   6   13.26    2.34
  25   3  -6   16.21    2.56
 -25  -3   7  298.21   20.74
  25  -3  -7  310.60   21.80
  25   3  -7  297.07   20.90
 -25  -3   8  220.30   15.01
  25  -3  -8  197.46   15.79
  25   3  -8  205.66   15.15
 -25  -3   9  374.31   25.55
 -25  -3   9  366.56   25.00
  25  -3  -9  392.16   26.36
  25   3  -9  359.51   25.33
 -25  -3  10   12.53    2.51
  25   3 -10   12.42    2.36
 -25  -3  11    4.17    1.56
  25  -3 -11    3.30    1.84
  25   3 -11    5.62    1.72
 -25  -3  12   16.55    2.85
  25  -3 -12   26.83    3.76
  25   3 -12   21.68    2.93
 -25  -3  13  140.13   10.28
 -25   3  13  143.72   10.74
 -25  -3  13  114.40    9.76
  25  -3 -13  137.58   10.91
  25   3 -13  114.33    9.85
 -25  -3  14  169.62   12.95
 -25   3  14  161.17   13.37
 -25  -3  14  187.26   13.08
  25  -3 -14  184.70   13.83
  25   3 -14  169.87   12.98
 -25  -3  15  517.34   34.65
 -25   3  15  530.56   35.37
 -25  -3  15  485.98   34.51
  25  -3 -15  574.63   35.72
  25   3 -15  510.32   34.68
 -25  -3  16  170.05   12.68
 -25   3  16  164.69   13.26
 -25  -3  16  176.88   12.81
  25  -3 -16  170.58   13.39
  25   3 -16  169.32   12.75
 -25  -3  17    7.91    1.84
 -25   3  17   12.32    2.74
 -25  -3  17    6.18    1.71
  25  -3 -17    9.59    2.31
  25   3 -17    9.14    1.88
 -25  -3  18    3.72    1.39
 -25   3  18    5.11    2.17
 -25  -3  18    1.91    1.47
  25  -3 -18    5.85    2.07
  25   3 -18    4.07    1.48
 -25  -3  19  104.15    8.87
 -25   3  19  114.86    9.91
 -25  -3  19  136.65    9.62
  25  -3 -19  129.46    9.96
  25   3 -19  114.02    9.18
 -25  -3  20    5.61    1.50
 -25   3  20    6.40    2.30
 -25  -3  20    8.03    1.80
  25   3 -20    4.89    1.43
  25  -3 -20    9.27    2.28
  25   3 -20    5.07    1.63
 -25   3  21  163.29   12.69
 -25  -3  21  161.69   12.04
  25  -3 -21  168.34   12.40
  25   3 -21  157.29   11.81
 -25   3  22   71.84    7.04
 -25  -3  22   87.97    6.87
  25  -3 -22   73.20    6.79
  25   3 -22   83.31    6.55
 -25  -3  23   27.43    3.25
 -25   3  23   30.75    3.86
  25   3 -23   30.04    3.03
  25  -3 -23   24.84    3.16
 -25  -3  24   34.22    3.37
 -25   3  24   23.45    3.39
  25   3 -24   31.32    3.07
  25  -3 -24   26.90    3.22
  25  -3 -25  175.16   11.93
  25   3 -25  161.92   11.53
  25  -3 -26    2.68    1.06
  25   3 -26    6.28    1.11
 -25  -5  -3  505.52   32.57
 -25   5  -2    0.55    0.41
 -25  -5  -2   86.40    3.42
 -25  -5  -1   12.56    1.87
 -25   5  -1    8.96    1.66
 -25  -5  -1    7.22    1.44
 -25  -5   0   27.26    2.53
 -25   5   0   27.06    2.64
 -25  -5   0   34.98    2.50
 -25  -5   1  484.49   10.28
 -25  -5   1  501.47    9.31
 -25  -5   2   23.84    2.32
  25  -5  -2   24.99    2.46
 -25   5   3  523.80   29.13
 -25  -5   3  480.87   28.34
  25  -5  -3  425.87   28.37
 -25   5   4   14.49    2.59
 -25  -5   4   20.67    2.50
  25  -5  -4   18.31    2.64
  25   5  -4   17.78    2.24
 -25   5   5   23.76    3.23
 -25  -5   5   25.65    2.87
  25   5  -5   23.67    2.71
  25  -5  -5   26.84    3.22
 -25  -5   6   16.12    2.35
  25   5  -6   16.83    2.40
 -25  -5   7 1580.13   93.63
  25  -5  -7 1407.93   94.02
  25   5  -7 1415.60   93.48
 -25  -5   8  322.80   22.62
  25   5  -8  316.71   22.70
 -25  -5   9 1528.55   92.10
 -25  -5   9 1438.02   91.24
  25  -5  -9 1381.61   91.93
  25   5  -9 1411.07   91.42
 -25  -5  10   23.77    3.26
  25   5 -10   24.20    2.97
 -25  -5  11  168.22   11.65
  25  -5 -11  159.76   11.58
  25   5 -11  140.04   10.91
 -25  -5  12    3.18    1.48
  25  -5 -12    4.87    1.62
  25   5 -12    4.43    1.26
 -25  -5  13  113.49    8.24
  25  -5 -13   87.29    7.84
  25   5 -13   99.12    7.58
 -25  -5  14   67.60    5.75
  25  -5 -14   60.23    5.60
  25   5 -14   60.38    5.19
  25  -5 -15   71.68    6.66
  25   5 -15   80.76    6.39
 -25  -5  16   35.52    3.58
  25   5 -16   28.30    2.97
  25  -5 -16   25.55    3.13
 -25  -5  17  204.83   13.02
  25  -5 -17  176.92   12.68
  25   5 -17  162.54   12.25
 -25  -5  18   11.63    2.00
  25   5 -18    9.64    1.61
 -25  -5  19  956.81   13.50
  25  -5 -19  833.66   12.01
 -25  -5  20    6.12    1.39
  25   5 -20    7.35    1.39
  25   5 -21  617.65    9.34
  25   5 -21    0.14    0.16
  25   5 -22   49.67    4.04
  25   5 -23  136.70    9.33
 -25   7   0  535.44   31.88
 -25  -7   0  466.09   31.33
 -25   7   1  390.53   25.41
 -25  -7   1  380.95   24.81
 -25   7   2  918.60   53.42
 -25  -7   2  784.94   52.53
 -25   7   3  295.00   20.26
 -25  -7   3  300.59   19.55
 -25  -7   4  445.04   28.74
 -25   7   5   17.38    2.59
 -25  -7   5   20.61    2.02
 -25   7   6  106.64    7.73
 -25  -7   6   89.75    6.67
 -25   7   7   30.96    3.50
 -25   7   8   45.25    4.44
 -25   7   9    2.84    1.37
 -25  -7  10   20.62    2.49
 -25   7  10   18.82    2.56
 -25  -7  11   63.45    4.95
 -25   7  11   48.04    4.78
 -25   7  12  489.63   32.29
 -25   7  13  295.53   20.04
 -25   7  14 1126.90   72.07
 -25   7  15  124.25    9.08
 -25  -7  16  829.16   49.82
 -25   7  16  728.71   49.50
  25   7 -17   38.59    3.39
  25   7 -18  269.00   17.82
  25   7 -19   29.56    2.69
  25   7 -20   14.47    1.59
  25   7 -21    3.73    0.77
  26   0   6  587.61   37.66
  26   0   5    9.44    1.48
  26   0   4 1007.05   64.43
 -26   0  -3    6.03    1.70
 -26   0  -2  511.76   33.67
 -26   0  -1    0.63    1.04
 -26   0   0    2.03    1.29
 -26   0   1    2.51    1.33
 -26   0   2  707.42   44.65
  26   0  -2  648.72   44.63
 -26   0   3    0.76    1.33
  26   0  -3    0.40    1.45
 -26   0   4    5.44    1.72
  26   0  -4    2.91    1.56
 -26   0   5   -0.78    1.37
  26   0  -5    3.01    1.67
 -26   0   6  258.49   18.34
  26   0  -6  258.86   18.58
 -26   0   7    7.89    2.09
  26   0  -7   11.76    2.66
 -26   0   8 2856.08  174.72
  26   0  -8 2630.88  174.95
  26   0  -9   16.15    2.93
  26   0 -10  866.18   56.99
  26   0 -11    2.96    1.59
  26   0 -12   42.93    4.89
 -26   0  13    1.80    1.29
  26   0 -13    2.02    1.51
 -26   0  14  127.37   10.59
  26   0 -14  140.58   11.03
 -26   0  15    2.75    2.01
  26   0 -15   -0.51    1.73
 -26   0  16  190.31   15.06
  26   0 -16  221.24   15.63
 -26   0  17   -0.46    1.57
  26   0 -17    0.50    1.71
 -26   0  18  775.48   51.87
  26   0 -18  801.02   52.14
 -26   0  19    5.39    2.22
  26   0 -19    4.29    2.14
 -26   0  20 1996.81  128.39
  26   0 -20 2022.19  128.54
 -26   0  21   11.34    2.75
  26   0 -21   13.05    2.93
 -26   0  22 3098.07  197.45
  26   0 -22 3130.52  197.54
 -26   0  23    1.86    1.63
  26   0 -23    4.13    1.90
 -26   0  24  325.46   22.36
  26   0 -24  328.88   22.37
 -26   0  25   -0.60    1.36
  26   0 -25    0.29    1.09
  26   0 -26   11.93    1.86
  26   0 -27   -0.80    0.97
  26  -2   5   47.24    4.27
  26   2   5   64.30    4.34
  26  -2   4    9.01    1.64
  26   2   4   15.78    1.76
  26  -2   3    1.06    1.07
  26   2   3    1.06    0.92
 -26  -2  -2    1.71    1.07
 -26  -2  -2    1.62    0.99
 -26   2  -2    5.80    1.46
  26  -2   2    7.60    1.68
  26   2   2    3.38    1.09
 -26  -2  -1   56.71    5.29
  26   2   1   49.58    4.89
  26  -2   0  586.31   12.41
  26   2   0  583.52   10.96
 -26  -2   1  571.17   39.00
 -26   2   1  647.66   38.51
  26  -2  -1  649.10   39.48
  26   2  -1  512.53   38.55
 -26  -2   2 1154.94   70.88
 -26   2   2 1144.21   70.25
  26  -2  -2 1034.69   70.87
  26   2  -2 1041.47   70.38
 -26  -2   3  428.33   30.41
  26   2  -3  400.23   30.02
 -26  -2   4 1371.04   80.87
  26  -2  -4 1234.05   80.90
  26   2  -4 1172.62   80.23
  26  -2  -5   37.44    4.30
  26   2  -5   18.83    3.02
  26   2  -6   33.47    3.91
  26  -2  -6   36.07    4.49
  26  -2  -7  111.86    9.46
  26   2  -7  110.91    8.95
  26  -2  -8   93.20    8.75
  26   2  -8  111.05    8.56
  26  -2  -9  396.08   26.54
  26   2  -9  364.06   25.74
  26  -2 -10   11.45    2.43
  26   2 -10   15.72    2.44
  26  -2 -11  104.88    8.64
  26   2 -11   86.23    7.76
  26  -2 -12  585.19   40.81
  26   2 -12  623.42   40.33
 -26  -2  13  411.65   28.97
  26  -2 -13  489.96   30.24
  26   2 -13  414.41   29.18
 -26  -2  14 1714.03  105.79
 -26   2  14 1540.50  106.15
 -26  -2  14 1721.69  105.95
  26  -2 -14 1543.97  106.44
  26   2 -14 1717.78  106.08
 -26  -2  15 1094.55   71.66
 -26   2  15 1162.82   72.55
 -26  -2  15 1064.03   71.86
  26  -2 -15 1215.83   72.93
  26   2 -15 1076.03   71.96
 -26  -2  16  765.64   46.79
 -26   2  16  661.39   47.32
 -26  -2  16  743.69   47.10
  26  -2 -16  644.80   47.44
  26   2 -16  736.92   47.16
 -26  -2  17  197.16   15.54
 -26   2  17  226.81   16.64
 -26  -2  17  231.15   16.23
  26  -2 -17  248.70   17.02
  26   2 -17  241.57   16.34
 -26  -2  18   37.06    3.93
 -26   2  18   26.26    3.87
  26   2 -18   30.14    3.61
  26  -2 -18   34.37    4.24
 -26   2  19    7.04    2.10
 -26  -2  19    1.89    1.35
  26  -2 -19    7.09    2.15
  26   2 -19    4.10    1.59
 -26   2  20  193.51   15.25
 -26  -2  20  207.37   14.90
  26  -2 -20  227.58   15.52
  26   2 -20  200.04   14.79
 -26   2  21   17.05    3.14
 -26  -2  21   20.28    2.92
  26   2 -21   20.48    2.78
 -26   2  22    7.80    2.07
 -26  -2  22    3.28    1.51
  26  -2 -22   10.54    2.03
  26   2 -22    5.90    1.39
 -26   2  23   52.92    5.39
 -26  -2  23   59.80    5.20
  26  -2 -23   57.72    5.37
  26   2 -23   57.26    5.06
 -26   2  24   46.14    4.95
 -26  -2  24   64.61    5.10
  26  -2 -24   41.65    4.77
  26   2 -24   70.86    5.02
  26  -2 -25  640.89   41.27
  26   2 -25  629.46   40.94
  26  -2 -26  256.65   18.81
  26   2 -26  306.93   18.75
  26  -2 -27  410.54   24.87
  26   2 -27  360.08   24.58
  26  -4   1   86.00    7.08
  26   4   1   91.32    6.81
 -26   4   0   16.71    1.98
 -26  -4   0    9.92    1.69
  26  -4   0   15.42    2.16
  26   4   0   11.34    1.61
 -26  -4   1    5.39    1.28
  26  -4  -1    1.76    1.24
  26   4  -1    3.46    1.15
 -26   4   2    0.29    1.11
 -26  -4   2    4.24    1.26
  26  -4  -2    3.89    1.35
  26   4  -2    1.56    0.85
 -26  -4   3   59.96    5.10
 -26   4   3   51.94    4.81
 -26  -4   3   59.73    4.72
  26  -4  -3   46.81    4.89
  26   4  -3   43.27    4.34
 -26   4   4   82.68    6.80
 -26  -4   4   79.74    6.36
  26  -4  -4   74.16    6.79
  26   4  -4   80.38    6.33
 -26  -4   5  297.58   20.00
  26  -4  -5  286.06   20.56
  26   4  -5  264.86   19.83
 -26  -4   6   10.87    1.90
  26   4  -6    8.53    1.87
 -26  -4   7 2319.95  141.13
  26  -4  -7 2299.56  141.96
  26   4  -7 2089.94  141.11
 -26  -4   8   16.44    2.39
  26  -4  -8   14.92    3.01
  26   4  -8   19.88    2.54
  26  -4  -9 2026.65  124.87
  26   4  -9 1905.13  124.02
 -26  -4  10   13.58    2.59
  26   4 -10   17.31    2.40
 -26  -4  11  660.21   42.63
  26  -4 -11  674.42   43.05
  26   4 -11  622.12   42.24
 -26  -4  12    1.73    1.33
  26  -4 -12    3.73    1.43
  26   4 -12    4.99    1.41
 -26  -4  13  111.95    8.51
  26  -4 -13  106.94    8.75
  26   4 -13  100.16    8.10
 -26  -4  14    8.71    1.94
  26   4 -14   11.78    2.05
 -26  -4  15  122.50    8.83
  26  -4 -15  109.45    9.00
  26   4 -15  104.24    8.38
 -26  -4  16   16.83    2.40
  26  -4 -16   12.03    2.35
  26   4 -16   11.97    1.97
 -26  -4  17    2.36    1.15
  26  -4 -17    2.51    1.55
  26   4 -17    0.52    0.97
 -26  -4  18    2.19    1.14
 -26   4  18    5.73    1.80
  26  -4 -18    4.77    1.73
  26   4 -18    7.21    1.45
 -26  -4  19  764.21   48.50
 -26   4  19  723.95   48.93
 -26  -4  19  828.41   48.63
  26  -4 -19  740.09   48.85
  26   4 -19  703.12   48.32
 -26   4  20    7.47    1.87
  26   4 -20    6.02    1.23
  26  -4 -20    6.68    1.79
  26   4 -20    2.35    1.19
  26   4 -21 1110.80   74.45
  26  -4 -21 1201.09   75.06
  26   4 -21 1234.49   74.69
  26  -4 -22   10.27    1.73
  26   4 -22   10.59    1.48
  26  -4 -23  213.59   14.90
  26   4 -23  228.32   14.68
 -26  -6   0  401.17   25.81
 -26   6   1  460.98   31.16
 -26  -6   1  493.70   30.87
 -26   6   2  709.17   39.16
 -26  -6   2  547.81   38.33
 -26   6   3  570.78   37.26
 -26  -6   3  570.52   36.64
 -26  -6   4  455.11   29.23
 -26  -6   4  401.66   28.66
 -26   6   5  159.91   11.89
 -26  -6   5  165.94   11.16
 -26  -6   6    2.52    0.80
 -26   6   7  103.81    7.75
 -26  -6   7   91.54    6.75
 -26   6   8   28.34    3.31
 -26   6   9  550.48   36.30
 -26   6  10    2.59    1.37
 -26  -6  11  116.86    8.98
 -26   6  11  126.33    9.35
 -26  -6  12  202.66   15.38
 -26   6  12  256.22   15.98
 -26  -6  13  531.15   33.58
 -26   6  13  489.77   33.64
 -26  -6  14  688.20   46.49
 -26   6  14  758.14   46.78
 -26  -6  15 1360.10   85.06
 -26   6  15 1306.51   85.11
 -26  -6  16  322.03   22.21
 -26   6  16  346.65   22.33
 -26   6  17  204.39   14.02
 -26   6  18   11.38    1.63
  26   6 -18   12.79    1.61
  26   6 -19    4.55    0.96
  26   6 -20  257.82   16.92
  26   6 -21   58.51    4.30
 -26   8   7    5.93    1.24
 -26   8   8 1272.44   80.88
 -26   8   9   16.38    2.04
 -26   8  10  383.65   25.12
 -26   8  11    3.67    1.01
  26   8 -14  528.39   33.77
  26   8 -15    4.89    0.82
  27  -1   4    5.27    1.06
  27   1   4   10.24    1.22
  27  -1   3   68.64    5.33
  27  -1   2    4.12    1.21
  27  -1   1    5.76    1.42
  27  -1   0  138.84   10.24
 -27  -1   1   15.03    2.38
  27  -1  -1   21.54    2.73
 -27  -1   2  396.09    9.41
  27  -1  -2  363.25    9.37
 -27  -1   3  141.83    9.37
  27  -1  -3  143.51    9.55
 -27  -1   4  113.49    8.46
  27  -1  -4   94.32    8.27
 -27  -1   5  115.51    8.95
  27  -1  -5  108.96    9.03
 -27  -1   6   78.34    6.49
  27  -1  -6   66.25    6.44
 -27  -1   7  114.52   10.00
  27  -1  -7  159.48   10.81
 -27  -1   8  919.55   56.37
  27  -1  -8  806.27   56.43
  27  -1  -9   71.07    6.61
  27  -1 -10  577.00   38.62
  27  -1 -11   68.77    6.49
  27  -1 -12   32.55    3.99
  27  -1 -13  345.72   24.15
  27  -1 -14  401.85   27.72
 -27  -1  15  137.94   11.32
  27  -1 -15  172.18   12.22
 -27  -1  16  263.52   18.21
  27  -1 -16  249.85   18.58
 -27  -1  17   15.72    2.68
  27  -1 -17   15.67    2.87
 -27  -1  18   78.87    6.68
  27  -1 -18   71.09    6.81
 -27  -1  19   64.37    6.24
  27  -1 -19   86.64    6.96
 -27  -1  20 1232.75   77.39
  27  -1 -20 1169.24   77.56
 -27  -1  21  168.07   13.30
  27  -1 -21  213.69   13.99
 -27  -1  22  839.82   53.57
  27  -1 -22  812.05   53.72
 -27  -1  23    2.53    1.23
  27  -1 -23    1.26    1.36
  27  -1 -24   22.58    2.79
  27  -1 -25    6.03    1.43
  27  -1 -26  307.36   20.15
  27   1 -26  302.33   20.00
  27  -3   1    0.61    0.91
  27   3   1    1.36    0.76
  27  -3   0    5.62    1.49
  27   3   0    6.25    1.23
 -27  -3   1  300.15    7.53
  27  -3  -1  295.34    7.71
 -27   3   2  260.85   19.04
  27  -3  -2  256.52   19.48
  27   3  -2  302.52   19.21
 -27  -3   3  515.75   34.11
 -27   3   3  574.52   33.98
  27  -3  -3  518.28   34.30
  27   3  -3  472.98   33.66
 -27  -3   4   31.87    3.38
 -27   3   4   20.46    2.72
  27   3  -4   32.36    3.02
  27  -3  -4   17.17    2.97
 -27  -3   5   37.09    3.91
 -27   3   5   44.08    4.01
  27  -3  -5   34.29    4.01
  27   3  -5   29.93    3.34
  27  -3  -6   11.75    2.48
  27   3  -6   20.55    2.45
  27  -3  -7   16.13    2.80
  27   3  -7   14.88    2.24
  27  -3  -8  210.89   14.69
  27   3  -8  188.52   13.88
  27  -3  -9  161.49   11.28
  27   3  -9  128.92   10.26
  27  -3 -10   56.54    5.60
  27   3 -10   58.98    5.15
  27  -3 -11  110.97    9.18
  27   3 -11  112.01    8.60
  27  -3 -12   32.87    4.24
  27   3 -12   48.86    4.25
  27  -3 -13  486.26   31.16
  27   3 -13  438.88   30.27
  27  -3 -14   62.37    6.85
  27   3 -14  105.25    7.07
 -27  -3  15 1465.83   92.14
  27  -3 -15 1489.49   92.87
  27   3 -15 1390.19   92.09
 -27  -3  16  335.66   20.98
  27   3 -16  321.28   20.98
 -27  -3  17  664.32   42.63
  27  -3 -17  698.28   43.48
  27   3 -17  623.67   42.71
 -27   3  18    8.12    2.04
 -27  -3  18    6.97    1.60
  27  -3 -18    7.76    2.00
  27   3 -18    4.83    1.44
 -27  -3  19   23.39    2.84
  27  -3 -19   28.97    3.35
  27   3 -19   20.07    2.66
 -27  -3  20   23.24    2.68
 -27   3  20   16.66    2.79
  27  -3 -20   16.55    2.65
  27  -3 -21  436.40   27.61
  27   3 -21  397.40   27.04
  27  -3 -22  168.13   12.23
  27   3 -22  176.99   11.93
  27  -3 -23  276.26   17.66
  27   3 -23  250.99   17.24
  27  -3 -24    2.50    0.87
  27   3 -24   -0.13    0.63
 -27   5   2   86.11    6.44
 -27   5   3   49.42    4.31
 -27   5   4    1.56    1.12
 -27   5   5   16.28    2.24
 -27   5   6    5.93    1.59
  27   5  -6   -0.13    0.18
  27   5  -7   -0.14    0.16
  27   5  -8    0.15    0.21
 -27   5   9 1075.10   15.77
  27   5  -9    0.31    0.32
 -27   5  10  175.86    6.47
  27   5 -10   -0.16    0.29
  27   5 -11    0.16    0.30
  27   5 -12   -0.16    0.30
 -27  -5  13  231.91    6.57
  27   5 -13   -0.16    0.26
 -27  -5  14    2.00    1.06
  27   5 -14    0.15    0.25
 -27  -5  15  728.28   11.18
  27   5 -15    0.14    0.17
  27   5 -16   -0.13    0.15
  27   5 -18  116.62    8.18
 -27   5  19  442.39   31.31
  27   5 -19  516.05   31.11
  27   5 -20  121.41    8.26
 -27   7   7    1.07    0.96
 -27   7   8  212.39   14.54
 -27   7   9    3.17    1.06
 -27   7  10  116.56    8.53
 -27   7  11    0.88    0.88
 -27   7  12   62.59    5.02
 -27   7  13  159.86   11.09
  27   7 -15  333.65   21.57
  27   7 -16  340.62   21.96
  28   0   2  108.32    7.56
  28   0   1    3.52    1.04
  28   0   0  553.51   35.84
  28   0  -1    2.79    1.07
  28   0  -2   34.76    3.45
  28   0  -3    1.09    1.11
  28   0  -4  201.87   14.26
  28   0  -5    1.53    1.19
  28   0  -6  308.98   21.10
  28   0  -7    5.61    1.86
  28   0  -8 1089.58   70.20
  28   0  -9   12.19    2.30
  28   0 -10 1185.58   76.31
  28   0 -11    5.06    1.56
  28   0 -12   90.69    7.51
  28   0 -13    1.84    1.18
  28   0 -14   -0.74    1.88
  28   0 -15    1.47    1.61
  28   0 -16  293.80   20.40
 -28   0  17    2.71    1.35
  28   0 -17    2.49    1.26
 -28   0  18  242.50   16.59
  28   0 -18  226.96   16.55
 -28   0  19    1.93    1.34
  28   0 -19    1.99    1.60
 -28   0  20  959.39   63.04
  28   0 -20  999.77   63.17
 -28   0  21    3.48    1.48
  28   0 -21    5.57    1.70
  28   0 -22 1659.38  105.52
  28   0 -23    5.45    1.41
  28   0 -24  333.30   22.02
  28   0 -25   -0.49    0.78
  28  -2   0   94.41    7.74
  28   2   0  123.44    7.77
  28  -2  -1  222.08   14.56
  28   2  -1  204.20   14.24
  28  -2  -2   50.61    4.97
  28   2  -2   72.64    5.10
  28  -2  -3  365.85    8.64
  28   2  -3  342.40    7.32
 -28   2   4   85.06    7.06
  28  -2  -4   98.29    7.69
 -28  -2   5  150.75   10.83
 -28   2   5  155.32   10.60
  28  -2  -5  157.92   11.07
  28   2  -5  132.47   10.49
 -28  -2   6   30.83    3.15
  28   2  -6   28.06    2.94
 -28  -2   7  181.90   13.01
  28  -2  -7  190.90   13.34
  28   2  -7  174.46   12.78
 -28  -2   8    0.92    0.99
  28  -2  -8    2.17    1.34
  28   2  -8    3.08    1.12
 -28  -2   9    4.96    1.42
  28  -2  -9    3.34    1.72
  28   2  -9    2.00    1.25
  28  -2 -10    2.64    1.38
  28   2 -10    4.37    1.46
  28  -2 -11  103.91    8.39
  28   2 -11  100.34    7.90
  28  -2 -12   41.15    4.30
  28   2 -12   39.11    3.93
  28  -2 -13  279.11   17.58
  28   2 -13  221.17   16.71
  28  -2 -14  709.82   47.90
  28   2 -14  748.42   47.51
  28  -2 -15  643.89   38.18
  28   2 -15  526.09   37.35
  28  -2 -16  685.37   46.83
  28   2 -16  740.88   46.51
  28  -2 -17  379.92   23.78
  28   2 -17  321.70   23.04
  28  -2 -18  244.85   17.43
  28   2 -18  250.98   17.03
  28  -2 -19    1.32    1.12
  28   2 -19    1.27    0.94
 -28   2  20    1.23    1.17
 -28  -2  20    4.47    1.43
  28  -2 -20    1.85    1.26
  28   2 -20    3.09    1.11
  28  -2 -21   93.94    7.39
  28   2 -21   93.58    7.05
  28  -2 -22   10.04    1.81
  28   2 -22   11.09    1.63
  28  -2 -23  161.66   11.52
  28   2 -23  168.69   11.32
  28  -2 -24  103.56    7.03
  28   2 -24   90.57    6.71
 -28   4   4   27.14    2.73
  28  -4  -5    3.70    1.19
  28   4  -5    5.25    1.13
 -28   4   6   -0.25    1.01
  28  -4  -6    1.82    0.94
  28   4  -6    2.04    0.74
  28  -4  -7  403.35   28.47
  28   4  -7  403.72   28.08
 -28   4   8    3.46    1.42
  28  -4  -8    1.04    1.14
  28   4  -8    3.19    0.98
  28  -4  -9  385.95   25.05
  28   4  -9  368.34   24.54
  28  -4 -10    5.21    1.44
  28   4 -10   12.20    1.56
  28  -4 -11  558.55   34.53
  28   4 -11  503.69   33.93
  28  -4 -12    3.04    1.21
  28   4 -12    7.38    1.20
  28  -4 -13   14.47    2.00
  28   4 -13   11.08    1.55
  28  -4 -14   52.43    4.53
  28   4 -14   48.88    4.10
  28   4 -15   18.33    1.95
  28  -4 -15   13.06    2.13
  28  -4 -16    3.17    1.15
  28   4 -16    1.86    0.86
  28  -4 -17   39.76    3.60
  28   4 -17   36.97    3.25
  28   4 -18    0.12    0.54
  28   4 -18    1.16    0.68
  28  -4 -19  575.57   29.27
  28   4 -19  385.66   28.60
 -28   6   6    4.65    1.05
 -28   6   9  151.93   10.76
 -28   6  10    2.10    1.01
 -28   6  11   23.43    2.61
 -28   6  12   18.83    2.28
 -28   6  13  160.40   11.25
 -28   6  14  355.30   23.42
 -28   6  15  488.18   31.64
  28   6 -16  260.84   16.92
  29  -1  -1    1.08    0.69
  29   1  -1    2.76    0.74
  29  -1  -2   32.59    3.03
  29  -1  -3   32.84    3.14
  29  -1  -4   25.14    2.71
  29  -1  -5    2.99    1.20
 -29   1   6    1.97    0.76
  29  -1  -6    2.64    1.10
  29  -1  -7   56.63    4.95
  29  -1  -8   22.73    2.77
  29  -1  -9    1.78    1.23
  29  -1 -10   47.00    4.46
  29  -1 -11   50.09    4.69
  29  -1 -12    8.41    1.79
  29  -1 -13    3.13    1.26
  29  -1 -14   87.05    7.06
  29  -1 -15   75.91    6.35
  29  -1 -16  243.95   16.94
  29  -1 -17    6.48    1.59
  29  -1 -18   82.78    6.69
  29  -1 -19    5.36    1.44
  29  -1 -20   44.41    4.08
  29  -1 -21  107.43    7.95
  29  -1 -22  294.57   19.58
  29   1 -23   18.27    1.77
  29  -1 -23   11.51    1.63
  29   3  -5   17.81    1.79
  29  -3  -5   14.05    1.89
 -29   3   6   16.27    1.87
  29  -3  -6   11.54    1.76
  29   3  -6   13.20    1.56
 -29   3   7   15.09    1.97
  29  -3  -7   14.58    2.00
  29   3  -7   11.73    1.60
 -29   3   8   20.41    2.33
  29  -3  -8   16.50    2.19
  29   3  -8   13.26    1.73
 -29   3   9   21.26    2.59
  29   3  -9   19.48    2.17
  29  -3  -9   20.57    2.51
  29  -3 -10    3.75    1.36
  29   3 -10    5.29    1.22
  29  -3 -11   -0.27    1.54
  29   3 -11    0.38    0.94
  29  -3 -12   58.50    4.81
  29   3 -12   47.77    4.24
  29  -3 -13    1.36    1.28
  29   3 -13    1.53    1.02
  29  -3 -14   10.44    1.91
  29   3 -14    9.09    1.44
  29  -3 -15  103.99    6.76
  29   3 -15   69.32    5.94
  29  -3 -16  116.59    9.08
  29   3 -16  130.76    8.82
  29  -3 -17  138.49    9.32
  29   3 -17  119.00    8.80
  29  -3 -18    7.06    1.38
  29   3 -18    4.22    0.99
  29   3 -19   15.00    1.64
  29  -3 -19   14.92    1.92
  29  -3 -20   15.11    1.63
  29   3 -20    8.01    1.21
 -29   5   8    6.92    1.28
 -29   5  11  208.48   14.27
 -29   5  12   31.85    3.15
 -29   5  13  245.54   16.58
 -29   5  14    1.25    0.90
 -29   5  15   23.81    2.49
 -29   5  16   29.95    2.81
  30   0  -4  657.33   42.03
  30   0  -5    2.16    0.99
  30   0  -6  252.70   16.84
  30   0  -7    0.98    0.69
  30   0  -8    7.19    1.43
  30   0  -9    3.64    0.98
  30   0 -10  226.97   15.44
  30   0 -11    2.71    0.97
  30   0 -12   72.18    5.73
  30   0 -13    4.83    1.16
  30   0 -14  514.52   33.53
  30   0 -15    4.73    1.19
  30   0 -16  266.51   17.94
  30   0 -17    1.06    0.95
  30   0 -18  564.00   36.49
  30   0 -19    2.26    0.99
  30   0 -20  509.64   32.90
  30   0 -21    0.30    0.63
  30  -2  -6   48.99    4.23
  30   2  -6   58.66    4.17
  30  -2  -7   89.45    5.73
  30   2  -7   61.48    5.18
 -30   2   8  201.26   14.89
  30  -2  -8  223.70   15.24
 -30   2   9  276.99   17.08
  30  -2  -9  275.91   17.24
  30   2  -9  225.31   16.79
  30  -2 -10  511.08   34.53
  30   2 -10  549.89   34.34
  30  -2 -11  229.30   14.76
  30   2 -11  204.52   14.36
  30  -2 -12   64.68    5.28
  30   2 -12   65.90    5.03
  30  -2 -13   82.42    6.28
  30   2 -13   79.44    5.98
  30  -2 -14   23.82    2.71
  30   2 -14   32.48    2.72
  30  -2 -15   18.24    2.16
  30   2 -15   17.57    1.93
  30  -2 -16    6.86    1.38
  30   2 -16   12.81    1.44
  30  -2 -17  217.03   13.96
  30   2 -17  194.87   13.60
  30  -2 -18   28.77    3.18
  30   2 -18   46.55    3.26
  30  -2 -19  130.81    8.70
  30   2 -19  117.10    8.39
 -30   4  10    1.56    0.72
 -30   4  13  148.32   10.35
 -30   4  14   17.31    2.03
 -30   4  15   77.85    5.85
  31  -1  -9   99.55    6.41
  31   1  -9   80.14    6.16
  31  -1 -10  167.17   11.60
  31   1 -10  176.72   11.54
  31  -1 -11  114.59    7.57
  31   1 -11   99.25    7.35
  31  -1 -12    6.54    1.11
  31   1 -12    6.40    1.01
  31  -1 -13   17.39    1.64
  31   1 -13    7.71    1.18
  31  -1 -14  256.90   16.87
  31   1 -14  252.90   16.75
  31  -1 -15   32.99    2.52
  31   1 -15   19.09    2.07
  31  -1 -16  343.45   22.69
  31   1 -16  353.50   22.61
  31  -1 -17  111.32    7.17
  31   1 -17   93.03    6.96
   0   0   0    0.00    0.00


TITL IC-235B-Ho in P2(1)/n
REM P2(1)/n (#14 in standard setting)
CELL 1.54184  24.951508  11.789967  26.327991  90.0000 113.4350  90.0000
ZERR   31.00   0.000219   0.000083   0.000244   0.0000   0.0011   0.0000
LATT  1
SYMM -x+1/2, y+1/2,-z+1/2
SFAC C H N O
UNIT 341.00 310.00 31.00 31.00
TREF
HKLF 4
END
_computing_structure_solution     'SHELXT 2018/2 (Sheldrick, 2018)'
;
_shelx_hkl_checksum                88973
_shelx_fab_file
;
-31 1 9 0.7452 -1.9758
-31 1 10 1.1474 -11.1768
-31 1 11 6.5748 3.1918
-31 1 12 5.7749 1.3190
-31 1 13 9.8718 -1.7496
-31 1 14 3.8049 -3.6080
-31 1 15 3.3444 -2.7427
-31 1 16 -1.3429 -11.5140
-31 1 17 -0.2353 3.2658
-30 0 4 -3.8303 -6.8216
-30 0 6 -1.9604 4.9176
-30 0 8 -3.4773 7.0806
-30 0 10 -7.5902 4.7212
-30 0 12 -5.7570 4.9136
-30 0 14 0.5259 5.5479
-30 0 16 -2.5543 2.6568
-30 0 18 -10.0849 -4.0309
-30 0 20 -7.6144 -12.6537
-30 2 6 5.6134 7.4685
-30 2 7 7.0479 -1.0909
-30 2 8 -0.0645 3.6973
-30 2 9 4.8599 -6.2739
-30 2 10 -3.7629 -9.0764
-30 2 11 -1.7273 1.1397
-30 2 12 -1.7619 -5.9528
-30 2 13 2.9949 3.6982
-30 2 14 1.6954 3.6305
-30 2 15 12.3623 -3.9504
-30 2 16 -0.6040 0.0939
-30 2 17 8.3411 -1.8252
-30 2 18 -3.9610 -3.3607
-30 2 19 -2.2947 7.7762
-30 4 10 -4.4456 -0.2807
-30 4 13 1.6661 -0.0618
-30 4 14 -11.6361 1.4276
-30 4 15 4.0997 -5.6457
-29 1 1 -3.9469 -5.0966
-29 1 2 -7.3887 3.3718
-29 1 3 -9.9892 -6.3977
-29 1 4 -10.1524 -5.1101
-29 1 5 -13.8677 -1.8957
-29 1 6 -5.9010 -2.5562
-29 1 7 -4.1264 4.8454
-29 1 8 -1.0251 8.8734
-29 1 9 7.2704 1.0774
-29 1 10 -3.6240 6.4710
-29 1 11 2.0191 -5.6777
-29 1 12 -10.4744 -5.5629
-29 1 13 -10.0846 -1.7791
-29 1 14 -6.9550 -4.4209
-29 1 15 -10.0260 1.2697
-29 1 16 4.1373 3.6354
-29 1 17 -3.3570 -5.8569
-29 1 18 5.0346 2.8954
-29 1 19 -4.0794 -9.1707
-29 1 20 -1.0168 2.5127
-29 1 21 -8.2133 -3.8918
-29 1 22 -1.6593 10.1850
-29 1 23 -6.5959 0.6600
-29 3 5 -1.4305 4.7487
-29 3 6 2.4050 -0.1151
-29 3 7 -9.6533 9.2138
-29 3 8 8.0181 4.8286
-29 3 9 -8.2172 1.3163
-29 3 10 12.9468 5.1180
-29 3 11 1.3391 -3.3386
-29 3 12 9.8261 1.1584
-29 3 13 0.1062 1.7123
-29 3 14 2.7736 3.0389
-29 3 15 -4.3253 0.7419
-29 3 16 -1.1952 5.3440
-29 3 17 6.7001 -5.2430
-29 3 18 -3.4841 2.3171
-29 3 19 14.4087 1.1798
-29 3 20 -4.3420 3.4685
-29 5 8 -20.7273 -0.8197
-29 5 11 15.3534 1.3167
-29 5 12 2.8616 -0.4276
-29 5 13 -0.9507 5.5469
-29 5 14 -6.1801 -2.1822
-29 5 15 -25.7982 2.0243
-29 5 16 -5.6127 -4.1399
-28 0 2 19.1579 28.6056
-28 0 4 8.9611 17.1670
-28 0 6 -4.5769 3.3811
-28 0 8 -7.8782 -0.8661
-28 0 10 0.9030 2.3636
-28 0 12 5.6462 4.7720
-28 0 14 1.3194 4.1758
-28 0 16 5.9122 2.9793
-28 0 18 16.3233 3.3998
-28 0 20 10.5415 7.2612
-28 0 22 -3.3022 10.1194
-28 0 24 -5.9340 4.2390
-28 2 1 -3.5970 7.9063
-28 2 2 -1.1031 4.3398
-28 2 3 1.3091 -0.0786
-28 2 4 0.2953 7.7459
-28 2 5 -3.1623 -10.3618
-28 2 6 3.4028 -2.3307
-28 2 7 -12.5582 -8.5298
-28 2 8 11.9657 -4.8080
-28 2 9 -9.8533 -0.8491
-28 2 10 18.2572 5.6226
-28 2 11 1.9430 -3.0021
-28 2 12 10.7224 5.7621
-28 2 13 3.1085 -6.2115
-28 2 14 -6.0172 -4.0414
-28 2 15 -7.4220 0.0441
-28 2 16 -12.8733 -3.6066
-28 2 17 -8.8472 1.4595
-28 2 18 -7.9297 0.3408
-28 2 19 3.2920 -5.2929
-28 2 20 -4.2743 -4.3003
-28 2 21 9.3020 -3.2712
-28 2 22 -2.5651 -3.7651
-28 2 23 1.5742 3.6393
-28 2 24 0.1245 8.2191
-28 4 4 -4.9285 -1.4012
-28 4 5 -0.8067 -6.7043
-28 4 6 -21.5443 -0.9373
-28 4 7 9.6531 -2.1989
-28 4 8 -40.3791 0.2967
-28 4 9 -1.1666 -2.5346
-28 4 10 -33.4683 0.8241
-28 4 11 -10.1369 -5.5036
-28 4 12 -1.5364 0.4464
-28 4 13 2.2431 -1.9080
-28 4 14 19.6125 0.9769
-28 4 15 -2.1197 6.1168
-28 4 16 16.6554 2.2881
-28 4 17 -25.2760 10.4185
-28 4 18 6.8423 1.1595
-28 4 19 -19.4790 14.9346
-28 6 6 29.8964 0.1848
-28 6 9 -8.0172 1.9589
-28 6 10 8.0405 3.5785
-28 6 11 -18.2690 0.9508
-28 6 12 0.2832 5.9380
-28 6 13 -3.0800 1.4101
-28 6 14 -12.0286 -1.7372
-28 6 15 4.9345 -6.4874
-28 6 16 -21.2984 -9.6435
-27 1 1 3.4130 8.2477
-27 1 2 3.5531 -4.7681
-27 1 3 4.7176 12.1149
-27 1 4 14.1421 5.2923
-27 1 5 11.4738 10.3391
-27 1 6 12.0098 8.5942
-27 1 7 5.0436 3.4177
-27 1 8 0.5789 -1.1273
-27 1 9 -9.7265 2.5365
-27 1 10 -2.2405 -5.2880
-27 1 11 -8.3762 6.6610
-27 1 12 8.5087 1.4360
-27 1 13 7.6953 3.4574
-27 1 14 10.4160 1.6946
-27 1 15 14.6715 -2.6713
-27 1 16 -3.0404 -4.4825
-27 1 17 7.3701 -1.1922
-27 1 18 -6.6689 -3.3849
-27 1 19 0.4173 1.0025
-27 1 20 2.5851 -1.3035
-27 1 21 0.5147 -1.7922
-27 1 22 3.6287 -8.5725
-27 1 23 3.0809 -3.8619
-27 1 24 -1.2494 -16.3251
-27 1 25 3.6181 -5.6179
-27 1 26 0.2906 -15.3483
-27 3 1 -2.4979 0.4099
-27 3 2 -3.9817 -6.6461
-27 3 3 7.1289 6.0243
-27 3 4 -3.3673 -3.9074
-27 3 5 14.7177 2.0641
-27 3 6 1.8363 0.3454
-27 3 7 16.2016 -3.4603
-27 3 8 1.5992 -2.1943
-27 3 9 9.7327 -0.2575
-27 3 10 -5.4490 -3.2845
-27 3 11 -5.0588 3.5652
-27 3 12 -6.9388 0.3699
-27 3 13 -11.3331 -1.4867
-27 3 14 -0.2212 0.5131
-27 3 15 -5.6269 -3.6541
-27 3 16 5.2261 -0.2001
-27 3 17 -9.4038 2.7627
-27 3 18 5.3281 4.4503
-27 3 19 -17.4396 1.8289
-27 3 20 0.5323 5.6390
-27 3 21 -5.0024 -7.5448
-27 3 22 -4.6563 -0.5317
-27 3 23 15.7893 -10.3912
-27 3 24 -3.0619 -1.9540
-27 5 2 -0.2665 2.0022
-27 5 3 -14.0349 2.6328
-27 5 4 -3.0870 1.0273
-27 5 5 -52.8615 -7.5336
-27 5 6 21.6124 -0.4700
-27 5 7 -66.6611 -0.9600
-27 5 8 37.7341 -0.0436
-27 5 10 18.0951 0.2527
-27 5 11 -33.2792 1.1012
-27 5 12 -5.1468 0.0999
-27 5 13 -11.5141 -2.8289
-27 5 14 -6.6199 1.4445
-27 5 15 30.5341 0.1693
-27 5 16 -4.2386 3.5335
-27 5 18 -6.8921 5.0608
-27 5 19 -9.5632 2.2631
-27 5 20 -3.6196 5.3797
-27 7 7 9.5769 8.0423
-27 7 8 -7.3887 0.1498
-27 7 9 22.6471 3.0426
-27 7 10 -4.9406 -4.4044
-27 7 11 17.5405 -2.2897
-27 7 12 -7.0770 4.6098
-27 7 13 -1.9565 0.6609
-27 7 15 -9.3611 2.7173
-27 7 16 -1.4626 -6.1131
-26 0 2 -14.8744 -23.6057
-26 0 4 -11.5016 -21.3079
-26 0 6 0.8574 -9.9670
-26 0 8 6.9921 -1.4744
-26 0 10 -1.3130 0.9881
-26 0 12 -5.9295 1.1806
-26 0 14 5.4672 2.2289
-26 0 16 7.3104 4.7986
-26 0 18 -7.7887 7.5393
-26 0 20 -6.5209 6.1887
-26 0 22 11.9495 0.0836
-26 0 24 13.8263 -3.3769
-26 0 26 -0.1183 -0.5872
-26 2 1 8.2172 -10.9876
-26 2 2 -6.5705 1.1906
-26 2 3 -4.9772 -7.7060
-26 2 4 -9.3172 -5.7373
-26 2 5 -6.5740 0.2499
-26 2 6 -1.0687 -1.5782
-26 2 7 3.3148 2.0058
-26 2 8 3.4328 2.2049
-26 2 9 1.8282 -2.7632
-26 2 10 -3.1861 -4.2136
-26 2 11 -11.4466 -2.3249
-26 2 12 -7.2597 -5.6734
-26 2 13 -13.5668 1.1243
-26 2 14 1.8588 1.6998
-26 2 15 1.5120 -2.1340
-26 2 16 8.7266 1.0953
-26 2 17 12.9784 -3.8921
-26 2 18 3.3227 -5.4467
-26 2 19 7.0633 1.8139
-26 2 20 -1.5820 -3.0560
-26 2 21 -3.9733 2.4080
-26 2 22 -1.5830 1.2867
-26 2 23 -5.0986 -2.3537
-26 2 24 -1.7935 -4.4649
-26 2 25 1.2515 0.5775
-26 2 26 0.6184 -12.3643
-26 2 27 4.6783 7.1167
-26 4 1 -3.1728 -2.5209
-26 4 2 1.4875 -0.8872
-26 4 3 -5.1175 2.9618
-26 4 4 4.9021 1.8583
-26 4 5 -1.5341 5.9938
-26 4 6 4.5254 3.6346
-26 4 7 -5.0019 2.6539
-26 4 8 19.1625 1.4809
-26 4 9 2.4795 0.0052
-26 4 10 27.5068 -1.7519
-26 4 11 13.7641 1.3651
-26 4 12 7.1544 -3.2260
-26 4 13 1.5211 2.0399
-26 4 14 -17.9113 -4.0609
-26 4 15 -6.0820 -0.3958
-26 4 16 -19.0149 -4.3738
-26 4 17 15.3392 -2.0877
-26 4 18 -3.0098 -1.2862
-26 4 19 22.7148 -5.3816
-26 4 20 9.0051 3.7424
-26 4 21 -1.3815 -14.0874
-26 4 22 6.0609 3.8936
-26 4 23 -12.8805 -17.1015
-26 6 1 -0.5818 2.2237
-26 6 2 8.2148 -4.1569
-26 6 3 0.0981 7.6480
-26 6 4 -6.0780 -7.9769
-26 6 5 8.3729 -3.2287
-26 6 6 -25.5908 -4.2019
-26 6 7 1.8221 -8.2155
-26 6 8 -23.8906 1.8928
-26 6 9 4.1630 -1.1759
-26 6 10 -7.7533 0.6330
-26 6 11 16.3521 1.6991
-26 6 12 2.3567 -4.8190
-26 6 13 3.9288 -1.6650
-26 6 14 11.8295 -2.7507
-26 6 15 -13.2809 0.0164
-26 6 16 23.1667 4.5671
-26 6 17 0.9069 5.3382
-26 6 18 18.7055 5.3447
-26 6 19 19.1760 5.9743
-26 6 20 0.1410 0.1330
-26 6 21 12.5933 4.4496
-26 8 7 -1.4092 2.9683
-26 8 8 2.2431 14.9058
-26 8 9 -1.6953 0.7445
-26 8 10 1.7944 -1.5893
-26 8 11 4.2010 -2.4834
-26 8 14 -5.2754 7.9400
-26 8 15 1.9309 1.4723
-25 1 1 6.7759 3.5857
-25 1 2 4.4024 4.6256
-25 1 3 1.3535 -1.0089
-25 1 4 -7.7351 2.7079
-25 1 5 -18.0513 -1.8681
-25 1 6 -12.8296 0.0107
-25 1 7 -23.3191 1.3250
-25 1 8 -3.1828 3.7739
-25 1 9 -4.6229 2.8783
-25 1 10 4.9844 5.3199
-25 1 11 10.2365 1.5273
-25 1 12 -5.4900 -0.2437
-25 1 13 6.7262 3.4446
-25 1 14 -14.1794 -1.4963
-25 1 15 1.2544 7.5009
-25 1 16 -0.7649 3.0515
-25 1 17 3.7366 6.5183
-25 1 18 8.7228 0.9571
-25 1 19 5.9880 2.9846
-25 1 20 -2.0254 -5.7877
-25 1 21 2.8855 1.3276
-25 1 22 -6.0822 -4.6383
-25 1 23 -3.3043 -0.9716
-25 1 24 5.2616 2.6718
-25 1 25 -9.0397 -1.8704
-25 1 26 10.0085 6.1068
-25 1 27 -9.0816 1.5960
-25 1 28 3.3463 3.7054
-25 3 1 3.8976 1.3587
-25 3 2 12.2173 1.1833
-25 3 3 4.6519 -2.7342
-25 3 4 9.5351 0.0891
-25 3 5 1.5725 -1.7903
-25 3 7 7.5287 2.6883
-25 3 8 -19.4807 -2.1028
-25 3 9 15.6464 2.8546
-25 3 10 -13.9582 1.2185
-25 3 11 18.6715 -0.0256
-25 3 12 -0.0590 0.0891
-25 3 13 10.7955 1.5587
-25 3 14 5.2989 -1.1138
-25 3 15 -5.9296 2.2018
-25 3 16 3.6036 -2.0034
-25 3 17 -10.9316 -4.2277
-25 3 18 2.9359 -6.5172
-25 3 19 0.3940 -6.0736
-25 3 20 7.1137 -8.9594
-25 3 21 4.6176 1.5899
-25 3 22 11.8621 -3.9820
-25 3 23 -3.9718 6.7399
-25 3 24 7.2346 0.5799
-25 3 25 -7.3988 8.6843
-25 3 26 -2.2949 -1.2651
-25 5 1 -7.8170 -8.0072
-25 5 2 -17.5449 1.7868
-25 5 3 -8.8517 -4.6399
-25 5 4 4.5184 -0.7824
-25 5 5 9.8304 5.3125
-25 5 6 1.1854 -1.2533
-25 5 7 26.9994 2.3608
-25 5 8 -15.8238 -2.4610
-25 5 9 21.2565 -4.7713
-25 5 10 -7.6412 -2.3104
-25 5 11 22.4719 -3.0079
-25 5 12 13.2294 1.1108
-25 5 13 26.5973 2.8057
-25 5 14 12.3025 4.1451
-25 5 15 -0.9644 3.2708
-25 5 16 -2.2032 4.7188
-25 5 17 -23.1671 -0.7753
-25 5 18 -8.8294 3.8097
-25 5 19 6.5218 -3.8260
-25 5 20 -10.9889 2.0945
-25 5 21 46.2171 -5.0370
-25 5 22 -14.3904 1.1682
-25 5 23 43.7391 -3.6427
-25 7 1 -15.2383 -1.5236
-25 7 2 -1.8923 1.5836
-25 7 3 -17.1326 0.7206
-25 7 4 3.7820 -2.2276
-25 7 5 -2.8726 -3.0892
-25 7 6 9.1818 -8.3892
-25 7 7 5.8956 -7.9040
-25 7 8 2.7997 -2.6743
-25 7 9 -7.3903 -4.5465
-25 7 10 -5.4977 6.9080
-25 7 11 -14.0148 0.9142
-25 7 12 -2.9138 2.7376
-25 7 13 0.9713 -0.9874
-25 7 14 3.5036 -7.3188
-25 7 15 11.5276 -5.3439
-25 7 16 5.1565 -3.0606
-25 7 17 5.6703 -3.1398
-25 7 18 6.0082 9.3575
-25 7 19 -1.2192 2.1714
-25 7 20 6.5728 11.4585
-25 7 21 -0.7243 2.6597
-24 0 2 8.5861 -2.6960
-24 0 4 16.0159 -3.9123
-24 0 6 8.1949 -8.2070
-24 0 8 -3.3303 -8.9650
-24 0 10 -2.8380 -6.7549
-24 0 12 -0.9466 -4.2124
-24 0 14 -16.8747 -1.6298
-24 0 16 -24.5209 0.9021
-24 0 18 -0.3430 2.2753
-24 0 20 15.9926 3.1479
-24 0 22 -1.6934 5.1571
-24 0 24 -14.9487 6.1604
-24 0 26 -0.9979 3.1068
-24 0 28 13.0997 -1.3605
-24 2 1 -19.7611 3.4903
-24 2 2 -9.0211 1.6329
-24 2 3 0.2374 5.5235
-24 2 4 -3.7724 5.0997
-24 2 5 10.6527 2.4706
-24 2 6 -5.6748 2.7490
-24 2 7 -1.0527 -0.5163
-24 2 8 -9.5689 -1.3118
-24 2 9 -4.8303 -0.4391
-24 2 10 -2.3460 1.3622
-24 2 11 10.3594 -1.4801
-24 2 12 11.7555 3.1448
-24 2 13 17.4831 -3.7050
-24 2 14 13.0961 -1.3686
-24 2 15 3.3892 -2.0898
-24 2 16 3.8831 -2.0942
-24 2 17 -11.4110 -1.0344
-24 2 18 -0.6337 2.9250
-24 2 19 -10.4992 -4.9345
-24 2 20 -3.7210 2.9145
-24 2 21 -2.5634 -4.5718
-24 2 22 -9.4120 -1.0756
-24 2 23 -0.5617 2.0729
-24 2 24 -10.8556 1.7052
-24 2 25 -5.2474 3.8505
-24 2 26 -9.1610 10.5228
-24 2 27 -10.0910 1.1064
-24 2 28 -7.5528 15.6761
-24 4 1 13.7664 0.5495
-24 4 2 9.5234 0.9611
-24 4 3 22.1167 -0.5806
-24 4 4 15.6976 1.5238
-24 4 5 13.1680 -2.7781
-24 4 6 28.3197 1.0033
-24 4 7 3.0965 -1.0824
-24 4 8 17.2049 2.6120
-24 4 9 -5.7770 1.4571
-24 4 10 -11.1188 3.3809
-24 4 11 -13.5576 1.1622
-24 4 12 -17.1986 1.5857
-24 4 13 0.1823 -1.0070
-24 4 14 0.3184 0.5614
-24 4 15 19.3376 -1.7825
-24 4 16 9.8368 1.3190
-24 4 17 8.3060 -1.7157
-24 4 18 2.2076 0.8008
-24 4 19 -11.7170 0.6873
-24 4 20 -5.6519 -1.9775
-24 4 21 -5.7758 8.7148
-24 4 22 0.3966 -3.7971
-24 4 23 10.1294 12.9959
-24 4 24 15.6488 -2.7098
-24 4 25 10.9334 4.6991
-24 4 26 22.5336 -0.8810
-24 6 1 -4.3383 1.7917
-24 6 2 -20.2883 1.1970
-24 6 3 3.2638 -6.0234
-24 6 4 -26.1743 3.3955
-24 6 5 3.5868 -0.6802
-24 6 6 -12.0046 2.7312
-24 6 7 15.8716 5.4463
-24 6 8 -0.5962 -2.0061
-24 6 13 -11.9632 2.1014
-24 6 14 3.6232 7.6076
-24 6 15 2.4919 3.8181
-24 6 16 -3.2360 1.7041
-24 6 17 1.2619 1.6947
-24 6 18 -8.4863 -4.9639
-24 6 19 -20.1577 0.5549
-24 6 20 0.4398 -4.9823
-24 6 21 -28.5725 1.5757
-24 6 22 10.0273 -1.8887
-24 6 23 -15.0133 0.9295
-24 8 1 5.9525 1.3281
-24 8 2 8.3196 1.7158
-24 8 3 -2.8996 5.7859
-24 8 4 3.8759 0.7743
-24 8 5 -12.1675 4.7356
-24 8 6 -1.0042 -6.7707
-24 8 7 -11.4930 -0.2720
-24 8 8 5.4751 -11.7657
-24 8 9 -6.9596 -1.1069
-24 8 10 8.8204 -3.1459
-24 8 11 -7.0388 1.5109
-24 8 12 0.0610 7.4718
-24 8 13 -7.9886 2.5167
-24 8 14 -3.7767 0.5558
-24 8 15 -2.2456 1.1772
-24 8 16 1.0278 -13.1772
-24 8 17 7.7318 -0.8326
-24 8 18 0.4053 -9.8228
-24 8 19 10.3650 -1.0801
-24 8 20 -3.9972 6.1628
-23 1 1 2.7479 -7.1190
-23 1 2 -2.2584 4.0953
-23 1 3 0.5227 -7.3438
-23 1 4 4.6471 4.2985
-23 1 5 14.7940 -6.5801
-23 1 6 11.0984 4.7012
-23 1 7 24.1669 -3.6068
-23 1 8 6.1745 2.2315
-23 1 9 7.3621 0.5483
-23 1 10 -3.7554 1.4568
-23 1 11 -12.3355 2.7642
-23 1 12 1.8269 4.9314
-23 1 13 -11.6726 1.8829
-23 1 14 12.8119 5.4986
-23 1 15 -3.1142 0.7932
-23 1 16 0.9964 0.6061
-23 1 17 0.0332 2.9737
-23 1 18 -15.1725 -1.2499
-23 1 19 3.4407 5.5945
-23 1 20 -4.5496 2.3835
-23 1 21 9.0725 4.4833
-23 1 22 11.3120 3.2448
-23 1 23 11.7135 2.0327
-23 1 24 5.1548 -1.6588
-23 1 25 11.7937 -0.0988
-23 1 26 -7.2315 -6.3776
-23 1 27 10.2400 -3.5589
-23 1 28 -6.9668 -6.3885
-23 1 29 5.9983 -5.7096
-23 1 30 -0.0127 -2.6214
-23 3 1 -14.0374 -2.1814
-23 3 2 -11.3879 -4.3478
-23 3 3 -23.6175 -1.2375
-23 3 4 -20.3301 -5.0539
-23 3 5 -5.5103 -1.7651
-23 3 6 -11.3896 -2.1117
-23 3 7 6.0712 -3.0870
-23 3 8 10.8331 -1.1108
-23 3 9 -0.9162 -2.1191
-23 3 10 16.4592 -1.5848
-23 3 11 -9.8019 0.6395
-23 3 12 0.5141 -1.4729
-23 3 13 -6.8251 0.4878
-23 3 14 -11.5649 -1.7867
-23 3 15 4.0751 -0.5359
-23 3 16 -8.1090 -1.5067
-23 3 17 6.2547 2.7808
-23 3 18 -0.7495 2.0088
-23 3 19 -4.2286 4.3608
-23 3 20 -1.8551 6.2500
-23 3 21 -11.4832 0.2069
-23 3 22 -9.6175 6.9282
-23 3 23 -8.8181 -1.1827
-23 3 24 -12.0754 5.9519
-23 3 25 -5.2510 0.2061
-23 3 26 -7.8629 7.2095
-23 3 27 -3.7993 -1.9920
-23 3 28 -7.0684 9.6308
-23 5 1 8.4411 3.1337
-23 5 2 14.9849 0.0865
-23 5 3 23.7012 5.7229
-23 5 4 -7.4907 1.2127
-23 5 5 16.3476 -1.3804
-23 5 6 -14.5536 -0.1840
-23 5 7 -3.3459 -2.4304
-23 5 8 3.0715 -0.3328
-23 5 9 -7.1278 1.6190
-23 5 10 8.6565 0.4459
-23 5 11 -12.5039 1.5307
-23 5 12 -5.7393 -1.3171
-23 5 13 -30.2203 -2.6899
-23 5 14 -8.6295 -2.9135
-23 5 15 -22.8110 -4.0045
-23 5 16 4.3195 -2.0535
-23 5 17 7.6870 0.1769
-23 5 18 10.7227 -1.2207
-23 5 19 10.3060 5.0007
-23 5 20 8.4597 -1.2731
-23 5 21 -21.8460 7.2709
-23 5 22 9.3864 -1.4985
-23 5 23 -47.9627 6.5334
-23 5 24 14.2347 -2.7060
-23 5 25 -41.7748 -0.2864
-23 7 1 6.7735 -1.0001
-23 7 2 3.7839 -2.0017
-23 7 3 7.3314 -4.0144
-23 7 4 9.5847 -3.1152
-23 7 5 -6.2406 -1.4357
-23 7 6 6.4035 2.4779
-23 7 7 -19.3852 3.4242
-23 7 8 4.1122 3.8927
-23 7 9 -7.3159 2.7598
-23 7 10 6.8617 -3.8614
-23 7 11 11.0040 -1.2454
-23 7 12 4.5117 -7.5164
-23 7 13 8.1231 -2.0725
-23 7 14 -2.3875 -0.3248
-23 7 15 -2.7839 0.0089
-23 7 16 -3.8588 3.5732
-23 7 17 -0.2568 -0.5914
-23 7 18 -2.6425 -2.6118
-23 7 19 9.2603 -5.0030
-23 7 20 -4.5503 -7.2274
-23 7 21 8.4326 -7.3423
-23 7 22 -5.2691 -3.0418
-23 7 23 -2.3782 -4.6848
-23 9 2 0.0747 -0.4660
-23 9 3 10.4288 1.4704
-23 9 4 6.5977 -1.1668
-23 9 5 8.0787 3.2361
-23 9 6 2.6175 3.0687
-23 9 7 7.7610 -0.6859
-23 9 8 -9.6263 2.9500
-23 9 9 5.8847 -2.6195
-23 9 10 -9.2686 -3.3426
-23 9 11 3.7337 0.9707
-23 9 12 -1.8667 -4.0579
-23 9 14 -1.4835 2.1710
-23 9 19 -11.0986 3.3539
-22 0 2 -5.8297 -2.2879
-22 0 4 -6.7910 -0.4209
-22 0 6 0.4884 1.8196
-22 0 8 5.3556 -1.3257
-22 0 10 -3.1107 -6.1293
-22 0 12 -14.6283 -7.7201
-22 0 14 -2.2306 -6.7096
-22 0 16 16.5612 -5.1657
-22 0 18 1.0282 -3.2082
-22 0 20 -24.8106 -0.1861
-22 0 22 -15.0586 3.0399
-22 0 24 8.3380 4.7638
-22 0 26 4.7646 4.9704
-22 0 28 -14.0944 4.2437
-22 0 30 -18.5630 2.0707
-22 2 1 24.0390 6.0487
-22 2 2 19.0174 2.1371
-22 2 3 8.2071 5.8623
-22 2 4 6.7709 1.7446
-22 2 5 -11.4985 5.8600
-22 2 6 -4.6382 2.9167
-22 2 7 -2.6650 3.8485
-22 2 8 -5.2311 3.6414
-22 2 9 8.3253 1.0519
-22 2 10 0.1210 1.3811
-22 2 11 -6.1618 -0.1957
-22 2 12 -0.2255 0.2086
-22 2 13 -20.4171 -0.2903
-22 2 14 -0.5183 2.6964
-22 2 15 -9.3245 -1.7593
-22 2 16 5.1883 3.6868
-22 2 17 7.2467 -2.7180
-22 2 18 8.0919 0.3784
-22 2 19 7.8215 -0.6731
-22 2 20 6.5586 -2.1274
-22 2 21 3.2874 -1.0842
-22 2 22 6.5991 -1.3388
-22 2 23 7.6723 -5.8288
-22 2 24 7.4547 -1.9137
-22 2 25 16.0651 -7.5072
-22 2 26 8.0837 -6.6283
-22 2 27 19.1154 -6.4099
-22 2 28 7.9938 -11.9373
-22 2 29 14.4613 -8.2832
-22 2 30 4.9996 -12.5401
-22 4 1 1.0478 -1.5927
-22 4 2 -1.8507 -1.0187
-22 4 3 -19.9306 -2.4043
-22 4 4 3.7747 0.0104
-22 4 5 -31.0149 -0.6669
-22 4 6 -10.1461 1.9948
-22 4 7 -26.6061 0.4663
-22 4 8 -16.0623 0.9309
-22 4 9 -15.3858 0.2780
-22 4 10 2.3293 -0.0374
-22 4 11 -1.6788 -0.7592
-22 4 12 11.3958 1.0301
-22 4 13 -1.0380 -1.3539
-22 4 14 -6.5892 0.5910
-22 4 15 -11.6018 -1.4862
-22 4 16 -23.0515 -1.2613
-22 4 17 -7.9352 -0.3649
-22 4 18 -17.6687 -1.1313
-22 4 19 7.9395 0.1591
-22 4 20 -4.1749 1.2933
-22 4 21 12.1617 -4.9283
-22 4 22 0.2015 3.7731
-22 4 23 1.4779 -9.3032
-22 4 24 -3.4095 4.5734
-22 4 25 -12.7082 -2.7230
-22 4 26 -4.7960 3.6088
-22 4 27 -19.2066 6.0450
-22 6 1 -6.0291 1.8327
-22 6 2 16.4117 2.4697
-22 6 3 -7.4006 5.8800
-22 6 4 20.4584 1.8792
-22 6 5 2.5352 2.3400
-22 6 6 9.5800 -0.7239
-22 6 7 -2.0566 -3.2832
-22 6 8 -0.9258 -0.3141
-22 6 9 -12.0237 -3.2620
-22 6 10 -0.2069 2.9700
-22 6 11 2.3030 -0.1804
-22 6 12 -0.3015 1.6428
-22 6 13 17.6225 1.1498
-22 6 14 -4.9140 -3.1076
-22 6 15 2.7842 0.6168
-22 6 20 11.7330 3.2306
-22 6 21 7.6315 -1.0956
-22 6 22 -1.0659 0.9121
-22 6 23 17.0660 -2.6439
-22 6 24 -13.7463 -0.6223
-22 6 25 5.0602 -2.6706
-22 8 1 -4.0164 -1.2879
-22 8 2 -15.0044 -1.8677
-22 8 3 2.6489 -4.1137
-22 8 4 -16.1612 -0.6243
-22 8 5 9.1976 -3.7502
-22 8 6 -3.4425 2.5615
-22 8 7 4.8764 0.9169
-22 8 8 -0.6032 6.5043
-22 8 9 -2.8623 2.8127
-22 8 10 -7.1243 4.0447
-22 8 11 -3.5375 1.2812
-22 8 12 -2.2644 -4.7920
-22 8 13 1.0375 -0.2470
-22 8 14 7.8071 -5.9548
-22 8 15 2.6896 -1.0596
-22 8 16 7.7549 3.1719
-22 8 17 -2.1385 -0.2897
-22 8 18 2.9387 6.6305
-22 8 19 -5.7915 0.7285
-22 8 20 -0.5386 -3.2923
-22 8 21 -0.7009 -0.5486
-22 8 22 -3.0952 -16.1668
-22 8 23 5.2024 -2.1047
-22 10 3 2.4356 -2.1983
-22 10 4 -1.3593 -9.1645
-22 10 5 -0.0657 -2.9158
-22 10 6 3.6275 -10.8977
-22 10 7 -0.4687 -0.0220
-22 10 8 4.9327 -4.5569
-22 10 9 -0.9170 -0.3125
-22 10 10 0.6784 -0.2872
-22 10 11 -7.6997 -2.0932
-22 10 12 0.1565 -2.9735
-22 10 13 -9.5156 -3.0835
-22 10 14 0.7586 -8.7049
-22 10 15 0.1022 -0.8347
-21 1 1 -7.5680 -8.7189
-21 1 2 0.0254 -2.7110
-21 1 3 7.3258 -9.0524
-21 1 4 -2.7458 -4.8377
-21 1 5 -0.8720 -5.4446
-21 1 6 -2.0401 -2.9319
-21 1 7 -22.0240 -3.5980
-21 1 8 4.8708 2.1784
-21 1 9 -21.2399 -4.9304
-21 1 10 12.2023 4.3249
-21 1 11 -7.2796 -4.1948
-21 1 12 5.7011 2.2007
-21 1 13 -6.8963 -0.4616
-21 1 14 -9.1096 0.5132
-21 1 15 -11.0369 2.8725
-21 1 16 -3.2363 2.0619
-21 1 17 -3.7298 3.2588
-21 1 18 16.9134 3.7245
-21 1 19 3.3538 1.3540
-21 1 20 14.2569 1.9258
-21 1 21 -0.8963 0.1524
-21 1 22 -6.5877 -1.6194
-21 1 23 -8.1032 0.0252
-21 1 24 -11.8541 -3.2870
-21 1 25 -10.6403 -0.4379
-21 1 26 0.0407 -2.5930
-21 1 27 -9.1892 -0.2806
-21 1 28 8.3113 -1.1108
-21 1 29 -5.4032 0.9515
-21 1 30 5.9607 -0.3481
-21 1 31 -2.2642 2.0879
-21 3 1 -6.3465 3.1850
-21 3 2 -12.5953 1.5183
-21 3 3 10.8326 2.1242
-21 3 4 7.7272 1.3967
-21 3 5 -1.8960 1.6076
-21 3 6 18.9536 -0.1523
-21 3 7 -17.5008 -0.0010
-21 3 8 1.4575 -1.3480
-21 3 9 -5.9915 -2.2344
-21 3 10 -16.7424 -2.4401
-21 3 11 16.3017 -2.8815
-21 3 12 -7.6790 -1.9212
-21 3 13 20.1965 -0.6757
-21 3 14 9.1617 -0.0721
-21 3 15 7.5614 1.3025
-21 3 16 7.8526 0.0765
-21 3 17 0.0229 -0.8292
-21 3 18 -2.9812 -2.0782
-21 3 19 1.0765 -2.4429
-21 3 20 -4.2912 -4.5436
-21 3 21 -2.0611 0.3349
-21 3 22 1.6463 -5.6817
-21 3 23 -7.1621 1.0804
-21 3 24 1.8902 -5.3566
-21 3 25 -2.9652 -0.9503
-21 3 26 -1.1228 -4.7706
-21 3 27 5.5080 -0.2519
-21 3 28 2.4458 -4.9353
-21 3 29 6.9398 -1.8597
-21 5 1 2.8588 -2.3236
-21 5 2 -0.1907 -1.1571
-21 5 3 -6.5359 -2.8825
-21 5 4 5.0880 -1.4869
-21 5 5 -4.3582 2.7830
-21 5 6 4.7428 1.0163
-21 5 7 6.1768 4.4140
-21 5 8 -14.3322 1.8049
-21 5 9 1.8462 0.7174
-21 5 10 -21.4505 -1.0806
-21 5 11 -6.4333 -2.6317
-21 5 12 -0.9245 -2.5015
-21 5 13 6.0312 -1.9366
-21 5 14 15.0341 -2.2304
-21 5 15 17.4974 0.8223
-21 5 16 8.1574 -2.8692
-21 5 17 4.6477 1.4017
-21 5 18 -1.1681 -2.8501
-21 5 19 -10.2588 0.4744
-21 5 20 -1.5741 -1.2640
-21 5 21 1.1650 -0.7116
-21 5 22 -3.6037 0.3909
-21 5 23 36.0881 -3.5598
-21 5 24 -11.2584 1.4134
-21 5 25 62.1036 -4.1969
-21 5 26 -17.2607 2.4193
-21 7 1 3.4977 2.1677
-21 7 2 2.6728 -0.3141
-21 7 3 -7.9945 3.5618
-21 7 4 4.4335 1.4676
-21 7 5 -2.0062 1.1782
-21 7 6 6.7047 1.1056
-21 7 7 13.3253 -1.4919
-21 7 8 9.6871 -0.8181
-21 7 9 8.1277 0.2687
-21 7 10 6.1110 1.7131
-21 7 11 -9.6111 3.5724
-21 7 12 -0.6779 5.7464
-21 7 13 -10.1289 4.4980
-21 7 14 -4.3497 2.8245
-21 7 15 4.2503 1.9397
-21 7 16 -8.3787 -2.7049
-21 7 17 9.4068 -2.0850
-21 7 18 -12.8244 -1.7196
-21 7 19 -1.3870 -2.6650
-21 7 20 -10.2675 3.7643
-21 7 21 -11.1106 0.9449
-21 7 22 -0.2027 4.7739
-21 7 23 -7.1156 4.8142
-21 7 24 9.5419 -3.1975
-21 7 25 -2.7061 6.9721
-21 9 1 -9.4575 1.5225
-21 9 2 4.3076 2.5538
-21 9 3 -14.5746 0.4915
-21 9 4 -11.5953 7.0941
-21 9 5 -9.7759 -0.5538
-21 9 6 -21.5273 3.5735
-21 9 7 -3.9810 1.8625
-21 9 8 -8.4390 -1.3891
-21 9 9 0.4853 2.8504
-21 9 10 4.1146 0.6454
-21 9 11 3.4294 -0.4114
-21 9 12 1.2743 4.5879
-21 9 13 1.4440 -1.8258
-21 9 14 -4.2588 3.8803
-21 9 15 0.3374 -0.2049
-21 9 16 -6.8125 0.3518
-21 9 17 4.8479 1.3646
-21 9 20 -1.0697 -0.6963
-21 9 21 -0.0099 -1.2166
-20 0 2 -1.6160 14.0141
-20 0 4 0.9824 12.8541
-20 0 6 -5.0609 4.0325
-20 0 8 -2.7449 -1.5368
-20 0 10 15.5366 -2.3423
-20 0 12 33.5904 -2.9513
-20 0 14 20.4457 -4.7274
-20 0 16 -13.9797 -6.5842
-20 0 18 -19.5399 -6.7975
-20 0 20 5.2498 -4.7523
-20 0 22 13.3185 -2.1742
-20 0 24 -0.5245 -0.1613
-20 0 26 -3.7396 1.3457
-20 0 28 7.5918 1.8075
-20 0 30 13.1675 2.1355
-20 2 1 -14.3173 3.3826
-20 2 2 -4.7025 -2.2416
-20 2 3 -9.4818 3.1289
-20 2 4 -8.4663 -2.6794
-20 2 5 15.2011 2.3478
-20 2 6 -10.0202 -3.4840
-20 2 7 14.2270 3.7489
-20 2 8 -8.4773 -1.4452
-20 2 9 -2.5343 4.9628
-20 2 10 -11.1757 1.4049
-20 2 11 5.5421 4.7003
-20 2 12 -12.4974 1.6952
-20 2 13 22.9843 4.1456
-20 2 14 -6.5866 1.0918
-20 2 15 12.0674 3.8022
-20 2 16 0.3551 1.7142
-20 2 17 -11.5162 2.5698
-20 2 18 4.5895 2.8314
-20 2 19 -12.5751 -0.0797
-20 2 20 7.4259 2.6957
-20 2 21 1.3055 -1.1319
-20 2 22 8.0723 0.1622
-20 2 23 3.6657 0.0200
-20 2 24 4.1108 -3.2138
-20 2 25 -6.4206 -1.0958
-20 2 26 -4.7314 -3.9225
-20 2 27 -13.5579 -2.8825
-20 2 28 -11.1704 -0.7931
-20 2 29 -10.5641 0.0518
-20 2 30 -8.3421 3.3215
-20 2 31 -2.6634 4.2415
-20 4 1 -13.3245 -2.4006
-20 4 2 -9.9167 0.4647
-20 4 3 1.9216 -1.9764
-20 4 4 -18.6052 -1.1580
-20 4 5 22.9809 -1.5951
-20 4 6 4.1696 -3.3956
-20 4 7 28.4394 -0.6993
-20 4 8 31.0119 -1.6522
-20 4 9 19.7764 -0.0218
-20 4 10 23.4776 0.7773
-20 4 11 5.2310 0.8512
-20 4 12 4.7840 0.6948
-20 4 13 -2.3449 1.3522
-20 4 14 9.9409 1.2246
-20 4 15 0.8500 1.1213
-20 4 16 21.2053 2.3425
-20 4 17 3.8511 -0.7551
-20 4 18 11.9505 1.5924
-20 4 19 3.5605 -3.0187
-20 4 20 -3.8220 0.0344
-20 4 21 1.9740 0.0939
-20 4 22 -4.5846 -0.7476
-20 4 23 -3.1922 5.7626
-20 4 24 1.9516 -0.3509
-20 4 25 -4.4072 4.2614
-20 4 26 0.8333 0.9750
-20 4 27 3.2221 0.5506
-20 4 28 -3.6263 1.5512
-20 6 1 8.3467 -2.0840
-20 6 2 -9.5584 -0.0073
-20 6 3 1.9189 -3.7785
-20 6 4 -9.1542 -1.4717
-20 6 5 -18.3002 -2.1043
-20 6 6 0.5563 -1.4281
-20 6 7 -17.4864 -0.1368
-20 6 8 5.7360 -0.2696
-20 6 9 5.0692 0.3316
-20 6 10 -2.4265 -1.6839
-20 6 11 8.2180 0.2603
-20 6 12 -10.0381 -2.3137
-20 6 13 -8.3542 -0.2196
-20 6 14 -7.0725 1.3508
-20 6 15 -7.8118 0.0688
-20 6 16 -4.7652 4.7157
-20 6 17 13.7516 0.7224
-20 6 18 -9.8018 3.9253
-20 6 19 25.7396 0.0976
-20 6 20 -12.6559 0.6407
-20 6 21 9.6485 -0.0286
-20 6 22 -6.2221 -1.6243
-20 6 23 -14.5923 1.0071
-20 6 24 7.5962 -2.0888
-20 6 25 -15.0235 1.3872
-20 6 26 21.5935 -4.7197
-20 6 27 0.6666 1.8248
-20 8 1 3.8404 -2.7194
-20 8 2 3.2197 0.7094
-20 8 3 7.4825 -1.0263
-20 8 4 12.6965 -2.9825
-20 8 5 4.1029 0.0500
-20 8 6 2.4251 -4.3003
-20 8 7 9.1725 -2.0488
-20 8 8 -10.2909 -3.4396
-20 8 9 16.4147 -3.1461
-20 8 10 -5.4959 -1.1462
-20 8 11 14.5973 -3.0903
-20 8 12 1.4789 3.1819
-20 8 13 7.7129 -2.9179
-20 8 14 -0.7563 4.4014
-20 8 15 2.2718 -0.5820
-20 8 16 -1.7545 -0.5645
-20 8 17 0.3015 1.6441
-20 8 18 1.6110 -5.3279
-20 8 19 0.3184 1.4322
-20 8 20 4.0928 -2.1664
-20 8 21 -2.0918 1.1247
-20 8 22 3.9821 11.1786
-20 8 23 -4.0090 0.1318
-20 8 24 -0.1162 24.6951
-20 10 1 1.4504 -1.1129
-20 10 2 -1.6897 -1.3659
-20 10 3 -4.0530 3.5918
-20 10 4 3.4735 3.3835
-20 10 5 -4.6177 4.9707
-20 10 6 3.3694 8.3095
-20 10 7 -4.5273 2.2586
-20 10 8 2.7413 5.5582
-20 10 9 -5.8921 -0.0540
-20 10 10 6.0710 0.6501
-20 10 11 -0.0777 -1.4112
-20 10 12 4.8873 -2.1401
-20 10 13 7.5203 0.0957
-20 10 14 -0.4204 -1.2166
-20 10 15 2.2526 1.4269
-20 10 16 -3.5405 8.2804
-20 10 17 -6.7059 -5.3367
-20 10 18 -5.0994 18.2975
-20 10 19 -2.4661 -12.9880
-19 1 1 7.7046 1.8966
-19 1 2 -3.4422 -8.5106
-19 1 3 -5.3121 4.6786
-19 1 4 8.9946 -4.1670
-19 1 5 -0.9730 0.6197
-19 1 6 9.7610 -1.6971
-19 1 7 22.1796 -4.1518
-19 1 8 -5.9511 -2.6925
-19 1 9 25.1082 -4.6361
-19 1 10 -18.9631 -2.1632
-19 1 11 6.7655 -4.4856
-19 1 12 -11.7621 -0.0705
-19 1 13 1.5321 -4.9296
-19 1 14 7.5461 1.7165
-19 1 15 7.7851 -4.6348
-19 1 16 9.1075 3.2817
-19 1 17 0.3891 -3.6157
-19 1 18 -10.1935 3.4877
-19 1 19 -13.6731 -0.8594
-19 1 20 -18.0290 2.2915
-19 1 21 -12.7626 3.0782
-19 1 22 -4.6164 2.2725
-19 1 23 -0.1881 5.5111
-19 1 24 6.7827 4.3150
-19 1 25 7.6512 6.0461
-19 1 26 5.1524 6.6113
-19 1 27 5.0297 5.3578
-19 1 28 -0.5842 6.8661
-19 1 29 -2.1901 3.2188
-19 1 30 -2.7629 4.7243
-19 1 31 -4.9584 0.4068
-19 1 32 -1.0031 2.8187
-19 3 1 23.8709 0.3474
-19 3 2 28.7529 3.4048
-19 3 3 -3.8085 0.8168
-19 3 4 17.5153 5.0861
-19 3 5 -10.7154 -0.6717
-19 3 6 -5.4444 3.9775
-19 3 7 2.9791 -0.3831
-19 3 8 -2.1027 1.1474
-19 3 9 1.0406 1.9393
-19 3 10 18.4495 0.7564
-19 3 11 -16.3146 2.6757
-19 3 12 14.6898 0.1419
-19 3 13 -16.6216 0.6020
-19 3 14 -9.1083 -2.0438
-19 3 15 2.1478 -1.2419
-19 3 16 -15.4672 -2.5182
-19 3 17 9.8919 -0.0028
-19 3 18 -2.7573 -1.5272
-19 3 19 0.4581 0.6951
-19 3 20 2.7311 -0.6263
-19 3 21 -2.7954 -2.0723
-19 3 22 1.0640 0.6846
-19 3 23 4.1774 -2.6619
-19 3 24 10.2728 1.1990
-19 3 25 3.0064 0.2808
-19 3 26 22.2012 -0.5517
-19 3 27 -7.6265 1.7110
-19 3 28 17.5142 -3.4564
-19 3 29 -12.3997 4.9985
-19 3 30 4.7430 -5.7346
-19 5 1 0.6566 2.0395
-19 5 2 0.7868 -0.6099
-19 5 3 12.0577 1.7916
-19 5 4 -9.3053 1.4522
-19 5 5 13.8773 -1.2306
-19 5 6 -17.4043 1.2202
-19 5 7 2.7446 -1.9075
-19 5 8 -0.2377 -0.2145
-19 5 9 2.3068 -0.3988
-19 5 10 16.1582 0.4784
-19 5 11 13.9518 1.4581
-19 5 12 3.6178 0.9920
-19 5 13 9.6250 1.7979
-19 5 14 -12.3255 0.6740
-19 5 15 -9.6439 0.1554
-19 5 16 -3.8301 0.9504
-19 5 17 -17.7487 -0.5913
-19 5 18 10.9125 0.7416
-19 5 19 -6.1387 -0.3452
-19 5 20 10.1135 -0.0443
-19 5 21 9.4915 -0.4337
-19 5 22 2.4224 -0.3744
-19 5 23 3.6368 1.2887
-19 5 24 -0.2347 0.2853
-19 5 25 -23.9454 2.7440
-19 5 26 -0.9525 2.8716
-19 5 27 -37.2832 0.1777
-19 5 28 -3.3891 5.9822
-19 7 1 -13.4252 0.8369
-19 7 2 -6.9341 1.0734
-19 7 3 4.9788 -1.2816
-19 7 4 -15.6327 1.9007
-19 7 5 5.3687 -0.9004
-19 7 6 -12.2720 -0.0335
-19 7 7 -12.5595 0.0138
-19 7 8 -7.3240 -1.1576
-19 7 9 -14.1406 -1.1993
-19 7 10 -3.7912 -1.4281
-19 7 11 1.4242 -1.3887
-19 7 12 0.7623 -2.3418
-19 7 13 4.9106 -0.4689
-19 7 14 3.2925 -1.2109
-19 7 15 -6.4339 0.3143
-19 7 16 3.4735 2.4171
-19 7 17 -10.9289 2.6924
-19 7 18 5.9704 5.1537
-19 7 19 1.5794 4.4874
-19 7 20 8.7258 3.6095
-19 7 21 16.5731 2.2457
-19 7 22 3.7532 -1.4255
-19 7 23 14.7026 -2.2930
-19 7 24 -8.3656 -1.0786
-19 7 25 4.3181 -6.3510
-19 7 26 -15.5367 6.9690
-19 9 1 0.3662 -1.7136
-19 9 2 -7.8133 -0.3541
-19 9 3 6.4545 0.2182
-19 9 4 2.7889 -3.7157
-19 9 5 3.8095 2.5464
-19 9 6 21.4611 -2.7913
-19 9 7 -1.7488 0.9546
-19 9 8 19.1657 0.3630
-19 9 9 -4.5251 -0.2053
-19 9 10 3.7869 0.8904
-19 9 11 -7.5324 2.0700
-19 9 12 -0.5916 0.6482
-19 9 14 5.6931 0.8191
-19 9 15 2.1913 0.7267
-19 9 16 13.8335 0.2450
-19 9 17 5.3517 -0.4876
-19 9 18 16.9806 1.1524
-19 9 19 0.5326 -2.6244
-19 9 21 -2.7407 -1.6043
-19 9 22 -1.4957 -6.1964
-19 9 23 -2.2218 5.5060
-19 11 1 2.5128 -11.5410
-19 11 2 2.4862 1.6117
-19 11 3 -4.2239 -5.1310
-19 11 4 5.4256 -0.9788
-19 11 5 -1.8158 6.8671
-19 11 6 6.3877 3.7645
-19 11 7 14.6797 13.2059
-19 11 8 4.5924 6.3284
-19 11 9 23.2963 9.9717
-19 11 10 4.0501 4.7290
-19 11 11 11.6708 -3.0744
-19 11 12 3.6933 4.7974
-19 11 13 -0.5869 -17.8008
-19 11 14 1.4833 -0.4637
-18 0 2 -4.7212 7.6930
-18 0 4 -18.2098 4.8613
-18 0 6 0.9450 7.9277
-18 0 8 19.7911 9.5149
-18 0 10 6.7735 6.8249
-18 0 12 -22.4246 2.6594
-18 0 14 -24.9418 -1.7557
-18 0 16 3.3926 -4.8676
-18 0 18 18.3106 -5.7696
-18 0 20 4.5960 -6.1265
-18 0 22 -4.4736 -6.0096
-18 0 24 2.6452 -4.4840
-18 0 26 5.1753 -2.3393
-18 0 28 -0.9340 0.2438
-18 0 30 -4.0520 2.2162
-18 0 32 -2.6188 0.8204
-18 2 1 13.5649 -4.0654
-18 2 2 2.6419 -5.6185
-18 2 3 19.3190 -4.6843
-18 2 4 5.6492 -5.9028
-18 2 5 -3.2057 -1.6798
-18 2 6 13.6583 -2.6005
-18 2 7 -8.3804 0.7081
-18 2 8 9.1157 -2.2352
-18 2 9 11.4019 2.5055
-18 2 10 0.0220 -2.7524
-18 2 11 9.0218 3.5430
-18 2 12 -1.0698 -0.1267
-18 2 13 -15.5447 2.8609
-18 2 14 0.2260 1.4445
-18 2 15 -13.6295 2.0912
-18 2 16 -1.3048 0.1776
-18 2 17 14.5984 2.2415
-18 2 18 -0.8078 -0.3817
-18 2 19 23.2755 1.8044
-18 2 20 1.9729 0.1263
-18 2 21 4.1509 -0.7187
-18 2 22 -0.5473 0.7695
-18 2 23 -9.5922 -3.0456
-18 2 24 -7.2396 2.2603
-18 2 25 -1.6208 -0.9762
-18 2 26 -6.7969 3.9974
-18 2 27 12.8770 2.7176
-18 2 28 0.6447 4.5609
-18 2 29 15.6666 1.9438
-18 2 30 4.3735 3.3356
-18 2 31 6.5668 -1.0342
-18 4 1 1.4070 -0.8493
-18 4 2 -7.2617 0.1115
-18 4 3 6.9835 0.1498
-18 4 4 16.4594 -1.1138
-18 4 5 -1.0393 -0.1980
-18 4 6 5.1743 -0.5967
-18 4 7 -7.9534 -1.3145
-18 4 8 -27.5869 -1.1158
-18 4 9 -10.3490 -0.8907
-18 4 10 -28.7444 -1.0517
-18 4 11 -10.8537 0.2181
-18 4 12 -4.6864 0.6477
-18 4 13 -11.9745 0.5985
-18 4 14 -2.4969 0.2159
-18 4 15 -11.0407 -0.1575
-18 4 16 -17.9946 -1.6188
-18 4 17 -5.4127 -0.1809
-18 4 18 -14.9696 -1.9304
-18 4 19 -4.7129 1.6138
-18 4 20 -0.8903 -1.5868
-18 4 21 -10.3136 0.6867
-18 4 22 -5.6590 -0.6939
-18 4 23 -5.5908 -2.9262
-18 4 24 -19.5098 0.7578
-18 4 25 7.9665 -2.0366
-18 4 26 -15.6308 0.9560
-18 4 27 11.4871 0.2233
-18 4 28 -1.7543 1.2583
-18 4 29 7.2877 -3.6282
-18 6 1 -5.5351 1.9189
-18 6 2 8.0649 -2.5190
-18 6 3 -12.2516 2.3783
-18 6 4 13.2797 -0.8317
-18 6 5 7.8517 0.1403
-18 6 6 2.6456 1.2017
-18 6 7 15.3683 -0.6264
-18 6 8 -6.0978 0.2068
-18 6 9 -6.6108 -0.7733
-18 6 10 3.2026 -1.1577
-18 6 11 -16.6217 -2.2601
-18 6 12 16.7973 -0.8533
-18 6 13 3.1925 -2.4372
-18 6 14 16.7431 -0.0997
-18 6 15 19.6775 -1.8540
-18 6 16 8.4263 0.6887
-18 6 17 9.3731 -2.4492
-18 6 18 3.8154 1.5288
-18 6 19 -13.6371 -2.0798
-18 6 20 5.7229 3.2853
-18 6 21 -20.3543 -0.0558
-18 6 22 12.0621 4.6269
-18 6 23 -5.7316 2.4796
-18 6 24 15.2821 1.1778
-18 6 25 2.5399 4.5473
-18 6 26 8.0759 -4.3169
-18 6 27 -5.6402 3.3734
-18 6 28 -2.9693 -5.4117
-18 8 1 0.3309 0.5142
-18 8 2 12.8994 -2.9903
-18 8 3 -5.0336 -1.1496
-18 8 4 -0.8414 -1.0640
-18 8 5 0.1624 -1.4288
-18 8 6 -6.0443 1.4689
-18 8 7 -5.7782 0.8791
-18 8 8 2.0238 2.0619
-18 8 9 -17.4277 1.1865
-18 8 10 2.2650 0.7787
-18 8 11 -15.5787 0.0869
-18 8 12 -2.9363 -1.6234
-18 8 13 -7.1388 -0.0164
-18 8 14 1.0019 -2.6909
-18 8 15 -5.1383 -1.3548
-18 8 16 7.6121 -2.2709
-18 8 17 -6.4687 -2.0114
-18 8 18 7.7920 -1.5794
-18 8 19 -4.9735 0.5970
-18 8 20 5.8370 0.5366
-18 8 21 0.8433 1.9405
-18 8 22 4.6662 -0.8127
-18 8 23 6.1815 0.8585
-18 8 24 2.6738 -9.8922
-18 8 25 4.1661 0.8428
-18 8 26 0.5264 -13.8978
-18 10 1 2.6072 5.6053
-18 10 2 -1.7465 4.6643
-18 10 3 4.4760 4.6217
-18 10 4 -2.7785 4.5224
-18 10 5 3.4567 1.9637
-18 10 6 -0.9001 0.8153
-18 10 7 2.9404 -0.5529
-18 10 8 0.4004 -0.5084
-18 10 9 7.6175 -1.9939
-18 10 10 -3.7213 -2.5358
-18 10 11 6.5328 1.4388
-18 10 12 -5.6238 -3.1439
-18 10 13 -6.1295 3.9303
-18 10 14 -3.4408 1.9369
-18 10 15 -10.8630 0.0698
-18 10 16 -2.2868 1.5823
-18 10 17 0.9283 -1.3489
-18 10 18 0.2944 -9.0956
-18 10 19 7.6272 1.2841
-18 10 20 1.2386 -13.5901
-18 10 21 -1.8335 -1.0748
-18 12 4 -0.7710 -6.4483
-18 12 5 0.1524 2.9386
-18 12 6 3.8392 -6.4132
-18 12 7 -5.5021 -0.4466
-18 12 8 8.4853 -2.0775
-18 12 9 -1.3319 3.2877
-18 12 10 7.7988 -1.4041
-17 1 1 -22.8288 8.4358
-17 1 2 13.2692 1.9754
-17 1 3 -3.5513 6.1006
-17 1 4 -10.3932 -1.8685
-17 1 5 7.8374 4.3225
-17 1 6 -31.5993 -5.1933
-17 1 7 -7.3324 2.4986
-17 1 8 -17.8586 -4.9747
-17 1 9 -12.5821 -0.8168
-17 1 10 8.8922 -5.4059
-17 1 11 4.0129 -2.6402
-17 1 12 11.9489 -4.8976
-17 1 13 4.6703 -4.0271
-17 1 14 -5.8435 -1.9532
-17 1 15 -16.9949 -6.0951
-17 1 16 -11.5934 -0.5746
-17 1 17 -23.2574 -5.3573
-17 1 18 2.8420 -0.1701
-17 1 19 -4.3129 -2.1026
-17 1 20 11.7573 2.7187
-17 1 21 11.8121 0.3537
-17 1 22 4.6188 5.6628
-17 1 23 9.7929 1.9541
-17 1 24 -3.4493 4.8375
-17 1 25 0.4250 2.7356
-17 1 26 -6.0780 0.9097
-17 1 27 -2.2639 1.6543
-17 1 28 -7.9018 -2.2060
-17 1 29 2.8635 -0.0149
-17 1 30 -7.9104 -1.7037
-17 1 31 5.6713 -0.2366
-17 1 32 -4.5137 -0.4801
-17 3 1 -14.6161 -1.2488
-17 3 2 -21.8469 3.2735
-17 3 3 -5.1321 -2.3856
-17 3 4 -27.8416 0.7952
-17 3 5 -4.5443 -0.1563
-17 3 6 -3.0378 0.4514
-17 3 7 -21.4657 1.0291
-17 3 8 11.5817 2.4078
-17 3 9 -20.0799 -0.9158
-17 3 10 -1.2271 1.7626
-17 3 11 7.7712 -2.4151
-17 3 12 -4.8165 1.0119
-17 3 13 22.3840 -1.3063
-17 3 14 13.8780 1.9969
-17 3 15 7.7386 0.0939
-17 3 16 18.5007 1.3969
-17 3 17 -2.9232 -0.7020
-17 3 18 -1.1909 0.4273
-17 3 19 9.0134 -1.1732
-17 3 20 -9.7132 1.0033
-17 3 21 17.4746 0.8289
-17 3 22 1.9231 0.5671
-17 3 23 4.6626 0.7828
-17 3 24 3.0555 -0.8994
-17 3 25 -9.6168 -2.2162
-17 3 26 -9.9910 -1.3327
-17 3 27 -7.4657 -3.3516
-17 3 28 -11.3143 -0.8959
-17 3 29 2.1862 -5.3132
-17 3 30 -1.9034 0.6043
-17 3 31 6.1349 -10.0605
-17 5 1 -7.4146 -0.9284
-17 5 2 -6.6399 0.4996
-17 5 3 -15.6986 -0.3575
-17 5 4 5.6395 -0.0549
-17 5 5 -17.9141 1.5924
-17 5 6 23.0871 -0.2287
-17 5 7 -1.4848 1.3402
-17 5 8 8.0624 0.9722
-17 5 9 9.6023 0.6392
-17 5 10 -22.1501 1.5446
-17 5 11 -0.8864 0.0632
-17 5 12 -22.0425 1.3756
-17 5 13 -9.5804 -0.8773
-17 5 14 -0.7260 -0.1179
-17 5 15 -1.8293 -1.1131
-17 5 16 4.0228 -2.2079
-17 5 17 9.5422 -1.1779
-17 5 18 -4.0972 -2.3137
-17 5 19 9.3018 -0.5727
-17 5 20 -1.0306 -1.8916
-17 5 21 -6.5854 1.6979
-17 5 22 8.4001 -2.2374
-17 5 23 -19.5599 2.9745
-17 5 24 7.8431 -0.8482
-17 5 25 -8.7466 3.5821
-17 5 26 1.9927 1.5023
-17 5 27 8.7856 5.8053
-17 5 28 2.4891 1.9300
-17 7 1 13.6798 -0.5319
-17 7 2 -7.4181 2.6141
-17 7 3 -4.6851 1.2575
-17 7 4 5.9862 -1.5325
-17 7 5 -8.2844 0.8474
-17 7 6 10.9251 -2.8273
-17 7 7 15.7911 0.0888
-17 7 8 8.6100 -0.6810
-17 7 9 25.4162 1.4715
-17 7 10 5.7493 1.8023
-17 7 11 7.1290 1.1117
-17 7 12 1.0331 2.5256
-17 7 13 -5.0813 -0.2877
-17 7 14 -3.0279 1.1543
-17 7 15 1.6572 0.8001
-17 7 16 -0.9266 -0.7552
-17 7 17 7.5345 1.2391
-17 7 18 0.1630 -3.4962
-17 7 19 -0.8177 -1.1167
-17 7 20 -7.7082 -5.8809
-17 7 21 -13.9032 -3.8944
-17 7 22 -13.1733 -2.2699
-17 7 23 -12.0443 -5.8347
-17 7 24 -4.4459 2.9167
-17 7 25 3.4876 -5.2559
-17 7 26 7.7048 -1.6024
-17 7 27 10.0282 -2.7464
-17 9 1 5.2526 1.4243
-17 9 2 10.9964 -2.9647
-17 9 3 0.7659 -0.4128
-17 9 4 8.8907 -0.2156
-17 9 5 -2.0962 -3.4992
-17 9 6 -7.9032 -0.4017
-17 9 7 -2.8473 -2.0161
-17 9 8 -12.3118 -1.3812
-17 9 9 -6.1009 0.3678
-17 9 10 0.6480 -0.5540
-17 9 11 -1.9439 -0.7554
-17 9 12 9.0386 -2.1291
-17 9 13 9.3515 -0.9867
-17 9 14 3.7492 -4.8507
-17 9 15 10.5836 -0.2459
-17 9 16 -11.7593 -2.2949
-17 9 17 2.4252 -1.3571
-17 9 18 -29.4908 1.0912
-17 9 19 0.1357 0.5131
-17 9 20 -31.7144 0.7384
-17 9 21 3.6117 4.7639
-17 9 22 -14.1106 2.7734
-17 9 23 3.3686 4.2766
-17 9 24 2.1745 4.5149
-17 11 1 -10.0801 6.9876
-17 11 2 1.5649 1.6889
-17 11 3 2.6728 4.6013
-17 11 4 -2.4305 3.5604
-17 11 5 10.3827 -1.2596
-17 11 6 -5.2645 -0.3935
-17 11 7 -2.4124 -5.2956
-17 11 8 -4.7130 -3.2580
-17 11 9 -19.5876 -8.7034
-17 11 10 -5.1007 -1.9769
-17 11 11 -16.0612 -7.3412
-17 11 12 -5.3410 -4.9516
-17 11 13 -1.8791 4.9655
-17 11 14 -1.6785 -7.2238
-17 11 15 0.2509 15.3687
-17 11 16 0.0088 0.8290
-17 11 17 -3.5011 12.1828
-17 11 18 -2.3301 6.2666
-16 0 2 -4.8776 -11.4552
-16 0 4 29.2331 -3.6111
-16 0 6 19.0610 2.1171
-16 0 8 -16.5817 6.4088
-16 0 10 -17.1259 9.0808
-16 0 12 20.2352 7.8012
-16 0 14 40.5808 5.3710
-16 0 16 21.4874 3.5395
-16 0 18 0.5263 0.2584
-16 0 20 -0.4363 -3.6050
-16 0 22 -3.2828 -5.8633
-16 0 24 -11.9362 -6.2219
-16 0 26 -5.4932 -4.5497
-16 0 28 9.4708 -2.6457
-16 0 30 10.2864 -2.4451
-16 0 32 0.9355 -1.3748
-16 2 1 -17.7152 -4.0474
-16 2 2 -9.1144 3.9055
-16 2 3 -26.7606 -2.8489
-16 2 4 12.1029 4.5485
-16 2 5 -5.8333 -2.6643
-16 2 6 7.1188 0.2846
-16 2 7 1.2377 -2.1337
-16 2 8 -2.1807 -1.0989
-16 2 9 -26.1607 -2.1193
-16 2 10 -2.1782 -0.4579
-16 2 11 -32.9991 -1.4921
-16 2 12 -5.3404 -2.7854
-16 2 13 1.8576 1.6806
-16 2 14 -13.3090 -3.4229
-16 2 15 21.8144 4.6048
-16 2 16 -13.8101 0.0186
-16 2 17 -0.6820 4.5022
-16 2 18 -8.5367 2.0699
-16 2 19 -23.0261 3.1383
-16 2 20 -7.1328 1.7105
-16 2 21 -14.5646 3.0686
-16 2 22 -4.8643 1.6377
-16 2 23 3.3306 2.9973
-16 2 24 4.1813 1.5568
-16 2 25 3.2155 0.1402
-16 2 26 10.0882 0.3050
-16 2 27 -11.8788 -2.3753
-16 2 28 6.7832 -2.5880
-16 2 29 -20.9103 -0.0017
-16 2 30 1.9018 -5.4836
-16 2 31 -14.7717 3.0422
-16 2 32 -1.2261 -5.2679
-16 4 1 2.4738 1.1977
-16 4 2 18.1778 -1.5020
-16 4 3 -0.0724 0.3001
-16 4 4 -24.4827 -0.4493
-16 4 5 7.1286 -0.1126
-16 4 6 -32.2415 0.9850
-16 4 7 11.5418 0.9488
-16 4 8 4.8248 2.4900
-16 4 9 13.4996 1.1182
-16 4 10 25.7077 1.4906
-16 4 11 18.4493 -0.0308
-16 4 12 10.0935 -1.4431
-16 4 13 23.6655 -0.9895
-16 4 14 4.6129 -1.4363
-16 4 15 18.4487 -0.2424
-16 4 16 21.8656 0.1587
-16 4 17 -0.8759 1.1116
-16 4 18 20.8596 0.1619
-16 4 19 -13.5156 0.9005
-16 4 20 -3.4595 0.4670
-16 4 21 -1.5006 1.0534
-16 4 22 -9.7802 0.5781
-16 4 23 16.3216 1.1238
-16 4 24 6.8256 -0.9654
-16 4 25 17.9652 -3.9715
-16 4 26 10.8126 -0.7618
-16 4 27 11.9432 -9.8949
-16 4 28 -0.9819 1.7018
-16 4 29 7.8952 -8.5638
-16 4 30 -3.1554 2.0773
-16 6 1 10.5604 -0.7634
-16 6 2 7.9963 2.2798
-16 6 3 25.7653 -0.0681
-16 6 4 -8.9980 2.9657
-16 6 5 -0.9920 3.1086
-16 6 6 -6.7294 1.2985
-16 6 7 -27.6503 2.9600
-16 6 8 7.4981 -0.5466
-16 6 9 -13.4328 0.5485
-16 6 10 7.7165 -1.2840
-16 6 11 7.6678 0.5499
-16 6 12 -5.3881 -1.1386
-16 6 13 1.2388 0.7506
-16 6 14 -13.6323 -1.5835
-16 6 15 -11.9530 -0.5274
-16 6 16 -12.6352 -3.1571
-16 6 17 -6.5230 -1.2324
-16 6 18 -6.6860 -2.8185
-16 6 19 12.4899 -1.1955
-16 6 20 -0.6751 -1.1523
-16 6 21 22.8556 -0.5820
-16 6 22 -1.7312 -1.6726
-16 6 23 12.1461 -0.0359
-16 6 24 -8.3798 -0.6924
-16 6 25 -2.3398 0.0427
-16 6 26 -11.2588 4.3673
-16 6 27 -2.2995 3.3850
-16 6 28 -9.6875 7.4882
-16 8 1 -5.6364 0.0259
-16 8 2 -12.5627 2.7315
-16 8 3 1.1365 0.8715
-16 8 4 -2.5108 1.8279
-16 8 5 -4.7992 1.6777
-16 8 6 8.8099 0.5584
-16 8 7 -0.0711 0.4990
-16 8 8 6.4808 -0.7125
-16 8 9 17.1220 0.7338
-16 8 10 2.3703 -0.7142
-16 8 11 17.9099 1.3406
-16 8 12 -0.4337 0.8938
-16 8 13 3.3839 -0.3387
-16 8 14 -11.3154 0.9580
-16 8 15 -2.0507 -0.3226
-16 8 16 -18.7874 -0.0397
-16 8 17 3.6436 1.4894
-16 8 18 -8.6312 0.8678
-16 8 19 7.2764 0.5727
-16 8 20 3.8623 -1.1970
-16 8 21 2.9983 -0.9301
-16 8 22 2.2119 -7.0338
-16 8 23 -4.5724 -1.4447
-16 8 24 -2.4644 -5.8558
-16 8 25 -6.5284 -4.3310
-16 8 26 1.3893 1.4568
-16 10 1 -4.2204 -4.9591
-16 10 2 0.2491 -0.2520
-16 10 3 -9.6613 -4.0354
-16 10 4 -3.5597 -0.6649
-16 10 5 -5.8264 -3.0634
-16 10 6 -10.2640 -0.1457
-16 10 7 3.7631 -1.2565
-16 10 8 -12.8922 -1.5924
-16 10 9 4.6094 3.1256
-16 10 10 -5.9059 1.8688
-16 10 11 -2.4585 3.3122
-16 10 12 0.9815 9.2565
-16 10 13 -0.4843 -0.0110
-16 10 14 3.6048 7.1982
-16 10 15 4.9397 1.1025
-16 10 16 8.1367 -0.7428
-16 10 17 -5.4280 2.1866
-16 10 18 8.8710 0.3087
-16 10 19 -20.4302 -0.6924
-16 10 20 1.1758 5.5863
-16 10 21 -15.9815 0.4130
-16 10 22 -1.9597 6.1813
-16 12 1 -1.1649 0.3267
-16 12 2 -4.1859 -4.3624
-16 12 3 -4.7843 -6.0491
-16 12 4 2.3448 -2.6729
-16 12 5 -2.0251 -3.2498
-16 12 6 2.7585 3.1076
-16 12 7 3.7784 2.0471
-16 12 8 -1.0657 4.6225
-16 12 9 0.9792 3.4712
-16 12 10 -3.8871 2.7925
-16 12 11 -6.4284 -3.5715
-16 12 12 -4.9282 1.5472
-16 12 13 -5.6366 -9.3871
-16 12 14 -4.2878 -2.1606
-15 1 1 25.8125 -1.8977
-15 1 2 -24.3997 1.9209
-15 1 3 3.8551 0.9574
-15 1 4 -11.8425 2.7360
-15 1 5 -9.1061 3.8766
-15 1 6 29.3331 2.2533
-15 1 7 14.7966 6.0757
-15 1 8 36.8003 -1.3770
-15 1 9 32.2311 6.6540
-15 1 10 6.3686 -2.4584
-15 1 11 12.5395 2.6980
-15 1 12 -11.6538 -2.4997
-15 1 13 -2.4842 -1.8829
-15 1 14 -1.0369 -5.0849
-15 1 15 15.4965 -2.5429
-15 1 16 5.6764 -5.2569
-15 1 17 31.1939 -2.5882
-15 1 18 -5.3311 -1.1609
-15 1 19 17.1815 -4.2744
-15 1 20 -10.1973 1.7032
-15 1 21 -5.3546 -5.3249
-15 1 22 -1.5857 1.5919
-15 1 23 -10.1504 -5.0184
-15 1 24 0.2479 1.2076
-15 1 25 1.1101 -3.5386
-15 1 26 -6.8748 1.9141
-15 1 27 9.9402 -0.4759
-15 1 28 -5.7200 2.2023
-15 1 29 5.5673 2.9460
-15 1 30 3.9077 -0.4753
-15 1 31 -3.0945 4.0237
-15 1 32 7.4793 -3.6660
-15 3 1 9.2537 1.3883
-15 3 2 7.2927 -1.6115
-15 3 3 5.6097 1.6427
-15 3 4 22.4975 0.3917
-15 3 5 7.0909 -0.6212
-15 3 6 7.6464 1.3931
-15 3 7 29.3247 -2.2589
-15 3 8 -9.3273 0.2214
-15 3 9 31.2854 -0.8137
-15 3 10 0.0700 1.4385
-15 3 11 -6.7728 1.0176
-15 3 12 10.3183 2.8792
-15 3 13 -36.9834 0.8637
-15 3 14 -3.2795 2.2482
-15 3 15 -22.6338 0.2968
-15 3 16 -11.7700 2.5856
-15 3 17 5.2663 1.2802
-15 3 18 6.9944 2.3342
-15 3 19 6.4734 1.6271
-15 3 20 19.5012 -0.8088
-15 3 21 -8.0369 -0.5460
-15 3 22 3.2436 -3.0664
-15 3 23 -7.9401 -1.3164
-15 3 24 -9.9553 -2.9206
-15 3 25 4.9509 0.2191
-15 3 26 -2.0502 -2.2740
-15 3 27 10.1609 -0.1330
-15 3 28 1.8991 -1.1649
-15 3 29 5.4615 0.5869
-15 3 30 -5.1047 -0.7034
-15 3 31 2.2641 4.8295
-15 5 1 3.3915 1.8056
-15 5 2 12.9914 -2.7176
-15 5 3 7.9948 0.3891
-15 5 4 20.0130 -2.6921
-15 5 5 18.8211 -1.4046
-15 5 6 -1.5241 -1.2274
-15 5 7 7.0444 -0.0979
-15 5 8 -5.4562 0.9789
-15 5 9 -14.1551 1.3987
-15 5 10 17.4172 2.1006
-15 5 11 -14.3996 1.0734
-15 5 12 22.1360 1.0118
-15 5 13 -3.4442 0.3291
-15 5 14 -0.5118 1.0594
-15 5 15 -0.5738 -0.2432
-15 5 16 -12.8002 2.9422
-15 5 17 -3.8277 -0.5240
-15 5 18 -4.4070 2.1762
-15 5 19 -7.8167 -1.6102
-15 5 20 -0.0055 -0.1546
-15 5 21 -6.9946 -3.6280
-15 5 22 -5.0793 -0.4842
-15 5 23 -1.0165 -3.1301
-15 5 24 -1.8583 -1.6396
-15 5 25 -3.0507 -0.8556
-15 5 26 10.0274 -5.1568
-15 5 27 -12.8643 0.0367
-15 5 28 12.4339 -7.4063
-15 5 29 -12.0977 3.2393
-15 7 1 -15.8080 1.1242
-15 7 2 12.6582 -1.1554
-15 7 3 2.3296 0.9528
-15 7 4 2.7688 1.4654
-15 7 5 17.7167 0.6179
-15 7 6 -8.9670 3.0338
-15 7 7 -2.2955 -0.2562
-15 7 8 -16.3700 1.7445
-15 7 9 -18.5896 -2.9102
-15 7 10 -18.8515 -0.9616
-15 7 11 -1.6363 -2.4693
-15 7 12 -10.8197 -1.7611
-15 7 13 13.4891 1.4383
-15 7 14 3.8451 0.0425
-15 7 15 0.8727 3.4098
-15 7 16 6.9659 0.1390
-15 7 17 -18.0844 3.4505
-15 7 18 -1.2591 -0.8232
-15 7 19 -18.4391 3.4313
-15 7 20 -1.2508 2.8528
-15 7 21 -1.4370 3.1019
-15 7 22 3.9553 6.9413
-15 7 23 12.3472 3.3914
-15 7 24 -3.0453 5.6135
-15 7 25 10.6884 1.9752
-15 7 26 -12.1937 5.3581
-15 7 27 4.6471 -3.4788
-15 7 28 -7.1816 8.7241
-15 9 1 4.0703 -2.8484
-15 9 2 -10.6987 -3.1166
-15 9 3 5.7288 -4.1142
-15 9 4 -11.7541 -4.6241
-15 9 5 3.4884 -0.9631
-15 9 6 -0.0296 -1.0946
-15 9 7 -0.8789 0.0187
-15 9 8 5.1806 2.5307
-15 9 9 3.9764 -0.8035
-15 9 10 -1.2625 -0.1051
-15 9 11 7.9501 0.8977
-15 9 12 -3.0408 -2.3472
-15 9 13 -2.4744 1.5057
-15 9 14 1.9808 1.8977
-15 9 15 -10.1287 -0.0370
-15 9 16 8.5093 5.4524
-15 9 17 0.0809 0.7217
-15 9 18 23.0438 4.9297
-15 9 19 12.4712 0.8071
-15 9 20 38.5974 4.0867
-15 9 21 11.3633 -1.5538
-15 9 22 31.9309 -0.2668
-15 9 23 2.7584 0.0638
-15 9 24 5.8805 -7.0843
-15 9 25 -1.6624 3.9241
-15 11 1 8.3802 -0.8743
-15 11 2 -7.0172 -0.2630
-15 11 3 -1.5590 0.4044
-15 11 4 -3.1442 -2.5529
-15 11 5 -15.3867 2.2598
-15 11 6 2.1633 -2.1671
-15 11 7 -12.6433 0.3161
-15 11 8 2.1719 -0.8907
-15 11 9 5.0091 0.3017
-15 11 10 0.5214 -2.3992
-15 11 11 12.0746 4.9751
-15 11 12 -2.7057 0.0840
-15 11 13 3.4106 3.0629
-15 11 14 -11.2399 5.6782
-15 11 15 0.4768 -6.1296
-15 11 16 -15.5824 1.6281
-15 11 17 6.1233 -11.2382
-15 11 18 -7.7599 -7.5571
-15 11 19 3.9023 -13.3003
-15 13 5 2.8845 -10.0599
-15 13 6 -3.9519 5.9156
-15 13 7 4.5006 2.7535
-15 13 8 -0.8650 8.2849
-14 0 2 36.9335 3.5377
-14 0 4 -21.1218 -1.8710
-14 0 6 -51.1126 -2.1134
-14 0 8 -19.1948 -0.1768
-14 0 10 10.0529 1.0196
-14 0 12 -4.9306 4.7142
-14 0 14 -23.8658 8.9100
-14 0 16 -13.3314 8.8525
-14 0 18 -3.1459 5.9637
-14 0 20 -13.3510 2.9415
-14 0 22 -12.2871 0.1687
-14 0 24 9.6188 -2.1033
-14 0 26 15.2334 -4.2868
-14 0 28 -3.4852 -5.3532
-14 0 30 -12.4885 -3.0407
-14 0 32 -2.5319 0.2406
-14 2 1 27.6452 1.1379
-14 2 2 31.2288 0.2485
-14 2 3 39.0971 0.5346
-14 2 4 5.9581 0.5393
-14 2 5 2.9881 -1.3351
-14 2 6 0.7721 2.9021
-14 2 7 -26.3263 -3.9597
-14 2 8 9.6867 1.7471
-14 2 9 3.1599 -4.6952
-14 2 10 9.1338 -1.7535
-14 2 11 34.1205 -3.5015
-14 2 12 3.9632 -1.1524
-14 2 13 9.7056 -2.8364
-14 2 14 6.2895 0.0199
-14 2 15 -24.3024 -1.9387
-14 2 16 8.0899 -2.2653
-14 2 17 -14.5731 0.6508
-14 2 18 4.2031 -3.3097
-14 2 19 13.3116 3.1394
-14 2 20 5.2557 -1.0362
-14 2 21 15.5522 3.2657
-14 2 22 12.3122 1.3144
-14 2 23 -4.2609 2.6553
-14 2 24 13.7694 1.9042
-14 2 25 -16.1038 4.6874
-14 2 26 8.1821 1.0656
-14 2 27 -7.5807 6.2992
-14 2 28 0.9872 1.0743
-14 2 29 6.6416 2.1813
-14 2 30 -5.4334 2.4603
-14 2 31 10.3743 -2.7968
-14 2 32 -5.1697 1.4832
-14 4 1 -1.1346 1.1428
-14 4 2 -27.7094 -0.4504
-14 4 3 -6.7451 0.8773
-14 4 4 8.6281 0.4574
-14 4 5 -17.7013 0.5197
-14 4 6 30.1335 -0.6328
-14 4 7 -11.8684 -1.3972
-14 4 8 3.0592 -3.1206
-14 4 9 6.4621 -2.6278
-14 4 10 -22.9689 -2.7603
-14 4 11 12.3988 -1.6341
-14 4 12 -10.0128 0.2842
-14 4 13 -2.1655 0.1837
-14 4 14 4.1905 0.3787
-14 4 15 -19.1648 0.4615
-14 4 16 -9.4927 -1.2193
-14 4 17 -15.5331 -0.2671
-14 4 18 -16.3148 -0.6325
-14 4 19 3.2461 0.2600
-14 4 20 5.0895 -0.5968
-14 4 21 8.5007 0.4906
-14 4 22 17.0965 -1.7781
-14 4 23 -3.6906 0.0464
-14 4 24 0.2791 -1.3216
-14 4 25 -10.8681 2.6394
-14 4 26 -9.2392 -1.2833
-14 4 27 -8.4703 4.7629
-14 4 28 4.5995 -3.6115
-14 4 29 -7.8105 1.2372
-14 4 30 12.9982 -5.1852
-14 6 1 0.2269 -2.2651
-14 6 2 -21.1907 0.8650
-14 6 3 -27.0717 -0.9259
-14 6 4 -4.7335 0.1631
-14 6 5 -11.8237 -1.9265
-14 6 6 4.1429 -0.3789
-14 6 7 20.7152 -1.0524
-14 6 8 -6.7384 -0.2799
-14 6 9 14.4302 1.7850
-14 6 10 -14.8608 0.2512
-14 6 11 -10.6072 1.8179
-14 6 12 -8.0746 -0.6764
-14 6 13 -9.2113 -0.1031
-14 6 14 3.1127 -2.0997
-14 6 15 6.8329 -0.9645
-14 6 16 10.3665 -0.8106
-14 6 17 9.8499 -0.8338
-14 6 18 9.1586 0.4683
-14 6 19 1.6818 -0.8943
-14 6 20 -0.4499 -0.4203
-14 6 21 -4.2746 -2.7836
-14 6 22 -8.3310 1.3270
-14 6 23 -1.7957 -4.1136
-14 6 24 -10.6871 5.2610
-14 6 25 2.1143 -0.5117
-14 6 26 -12.9860 5.6449
-14 6 27 -2.4099 2.9436
-14 6 28 -12.2618 3.3785
-14 6 29 -8.2765 0.5069
-14 8 1 -0.0084 2.6749
-14 8 2 -0.9379 0.9501
-14 8 3 -5.0138 1.4145
-14 8 4 -3.1004 1.6674
-14 8 5 6.0838 -0.9207
-14 8 6 -3.4600 -0.0405
-14 8 7 7.2565 -0.8266
-14 8 8 3.6826 -0.7895
-14 8 9 -17.9822 -0.6420
-14 8 10 3.7273 0.3366
-14 8 11 -33.6973 -0.7667
-14 8 12 -2.7567 0.4862
-14 8 13 -19.2009 1.0953
-14 8 14 4.8795 1.0008
-14 8 15 -0.4540 1.3801
-14 8 16 16.3204 3.1222
-14 8 17 1.9201 -0.8642
-14 8 18 1.1409 2.0891
-14 8 19 -5.7252 -0.1143
-14 8 20 -24.1889 -0.8286
-14 8 21 -10.5109 2.7569
-14 8 22 -18.1263 0.4535
-14 8 23 -7.5033 3.6789
-14 8 24 8.9640 1.3524
-14 8 25 -1.6132 4.2479
-14 8 26 17.5744 -2.8975
-14 8 27 2.9166 3.8197
-14 10 1 -0.1339 -1.8304
-14 10 2 5.6358 0.1537
-14 10 3 8.6220 -1.1616
-14 10 4 3.3198 -1.0731
-14 10 5 9.5622 0.5475
-14 10 6 9.1981 -2.5856
-14 10 7 1.5129 2.0294
-14 10 8 14.6905 0.6834
-14 10 9 -1.6444 -1.4606
-14 10 10 8.4005 2.9126
-14 10 11 8.8823 -4.5559
-14 10 12 1.6291 -2.5096
-14 10 13 15.8807 -2.0638
-14 10 14 4.4403 -5.9596
-14 10 15 8.5798 0.8316
-14 10 16 4.9267 -0.8327
-14 10 17 5.4876 3.2491
-14 10 18 -0.8988 4.0373
-14 10 19 14.8477 6.0053
-14 10 20 -0.5226 6.4667
-14 10 21 17.6924 1.3178
-14 10 22 4.5221 10.7342
-14 10 23 6.1295 -8.2822
-14 12 1 -1.4914 -2.9991
-14 12 2 6.6726 3.6243
-14 12 3 6.1987 4.0400
-14 12 5 6.7713 3.1037
-14 12 6 1.0818 1.9444
-14 12 7 -1.6749 0.1259
-14 12 8 -3.3037 -2.4640
-14 12 9 -7.1793 -3.3118
-14 12 10 -3.8932 -4.7209
-14 12 11 -4.2480 -3.3021
-14 12 12 2.3876 -5.6185
-14 12 13 -2.4429 0.4882
-14 12 14 9.0867 -3.4514
-14 12 15 -3.8553 -3.0007
-14 12 16 8.0773 1.1776
-13 1 1 -33.6749 -2.3966
-13 1 2 13.5150 3.4417
-13 1 3 -17.5278 -3.0974
-13 1 4 32.8142 1.0244
-13 1 5 4.4220 -0.5975
-13 1 6 0.9185 -0.9858
-13 1 7 -15.9270 2.2077
-13 1 8 -25.4056 1.4732
-13 1 9 -39.2710 3.3568
-13 1 10 -9.8079 2.2383
-13 1 11 -13.1266 5.2686
-13 1 12 8.9705 -0.8623
-13 1 13 22.9679 6.3521
-13 1 14 1.1695 -2.8260
-13 1 15 12.8416 3.4075
-13 1 16 -4.9947 -3.8821
-13 1 17 -21.1366 -0.9850
-13 1 18 10.9734 -5.7802
-13 1 19 -31.3591 -3.7311
-13 1 20 20.4625 -5.8258
-13 1 21 -16.3932 -4.8108
-13 1 22 6.0761 -3.1966
-13 1 23 -1.5486 -4.6202
-13 1 24 -3.2470 -0.3306
-13 1 25 0.6306 -3.7979
-13 1 26 9.9103 0.9893
-13 1 27 -3.0969 -2.7623
-13 1 28 20.8547 1.5758
-13 1 29 -1.6212 -2.0367
-13 1 30 11.6790 4.5679
-13 1 31 2.8050 -2.0791
-13 1 32 -1.4616 8.6663
-13 1 33 1.0750 -0.6887
-13 3 1 -6.3859 -0.4788
-13 3 2 5.8906 1.0643
-13 3 3 15.9743 0.2127
-13 3 4 -20.6784 -1.5631
-13 3 5 28.8320 1.2152
-13 3 6 -26.8592 -2.5532
-13 3 7 -10.7095 1.4552
-13 3 8 -21.8513 -0.8546
-13 3 9 -50.1230 -0.0348
-13 3 10 -28.3022 -0.5473
-13 3 11 -29.0168 -1.1231
-13 3 12 -30.5252 -0.1008
-13 3 13 16.7492 -0.1082
-13 3 14 -6.2664 2.3695
-13 3 15 23.8644 1.2279
-13 3 16 17.5765 2.7757
-13 3 17 -0.0600 0.4974
-13 3 18 6.1212 0.9471
-13 3 19 -7.7239 -0.4958
-13 3 20 -17.7088 0.1842
-13 3 21 9.5084 0.8475
-13 3 22 -17.4662 -0.0461
-13 3 23 21.0055 1.6443
-13 3 24 -9.2722 0.4426
-13 3 25 11.7800 0.5662
-13 3 26 -15.3750 2.7931
-13 3 27 -1.1122 0.9135
-13 3 28 -16.3976 4.8104
-13 3 29 -4.1415 -0.6030
-13 3 30 -3.2719 5.2881
-13 3 31 -3.9890 -6.6812
-13 5 1 -4.4411 -3.6614
-13 5 2 -10.8180 -1.0940
-13 5 3 -1.4993 -2.8593
-13 5 4 -21.8647 -1.4510
-13 5 5 -18.2424 -0.3776
-13 5 6 4.9746 -0.9007
-13 5 7 -20.2345 0.0743
-13 5 8 28.5503 -1.4283
-13 5 9 -0.7666 -0.5481
-13 5 10 15.1242 -2.0829
-13 5 11 9.1027 0.0009
-13 5 12 -3.8748 -0.0674
-13 5 13 7.2546 1.1731
-13 5 14 -3.0023 1.7612
-13 5 15 9.0517 1.4401
-13 5 16 -3.2970 1.0948
-13 5 17 7.5365 0.1963
-13 5 18 -15.6537 2.1387
-13 5 19 -0.6790 -0.3913
-13 5 20 -16.3747 4.3627
-13 5 21 -4.7153 0.5992
-13 5 22 4.9560 2.0621
-13 5 23 -2.6192 -0.7056
-13 5 24 22.9506 -3.6122
-13 5 25 4.7664 -3.6316
-13 5 26 18.3314 -7.5526
-13 5 27 18.2317 -3.6336
-13 5 28 6.1284 -7.6811
-13 5 29 26.3094 -4.5756
-13 7 1 17.1328 -1.0694
-13 7 2 0.2731 0.3310
-13 7 3 -1.8332 -1.1292
-13 7 4 -8.2445 -0.3447
-13 7 5 -29.6913 -1.2588
-13 7 6 -10.9686 -0.9847
-13 7 7 -14.2575 -1.5509
-13 7 8 -1.1185 -1.1312
-13 7 9 17.9657 0.0199
-13 7 10 17.3427 0.0658
-13 7 11 15.4158 0.3247
-13 7 12 23.7496 1.1554
-13 7 13 -3.0892 -2.1992
-13 7 14 9.7712 -0.8802
-13 7 15 1.2690 -3.8297
-13 7 16 1.0172 -2.8647
-13 7 17 20.1050 -3.5422
-13 7 18 11.3656 -1.1986
-13 7 19 26.4837 -1.3131
-13 7 20 14.8939 -0.9095
-13 7 21 13.9124 3.1006
-13 7 22 2.9071 -3.0704
-13 7 23 -4.4009 4.9640
-13 7 24 1.4425 -0.9484
-13 7 25 -14.9766 3.1155
-13 7 26 9.2267 4.2006
-13 7 27 -17.7599 3.8385
-13 7 28 1.8481 6.2158
-13 9 1 -6.9765 1.6920
-13 9 2 7.2012 0.6833
-13 9 3 -9.3064 3.1358
-13 9 4 9.8575 3.2383
-13 9 5 -4.3573 1.4847
-13 9 6 -4.3988 2.6508
-13 9 7 6.6425 0.3706
-13 9 8 -10.8965 -1.3577
-13 9 9 5.5554 0.6447
-13 9 10 -2.1268 -1.8903
-13 9 11 -8.3760 -1.5975
-13 9 12 -1.0445 0.4628
-13 9 13 -12.2595 -3.9979
-13 9 14 -9.5857 -1.2675
-13 9 15 -5.2891 -3.5545
-13 9 16 -7.3629 -4.7765
-13 9 17 -6.4301 -4.0636
-13 9 18 -3.1802 -4.6556
-13 9 19 -14.9888 -5.4961
-13 9 20 -18.4509 -2.9345
-13 9 21 -15.3190 -5.3376
-13 9 23 -4.0887 -7.1506
-13 9 24 -19.6671 3.7772
-13 9 25 7.0190 -9.8951
-13 9 26 5.9491 2.2730
-13 11 1 -7.4065 4.2433
-13 11 2 8.7917 -0.8751
-13 11 3 -7.8629 2.2294
-13 11 4 5.9858 0.9322
-13 11 5 4.0126 -1.8728
-13 11 6 3.5680 1.2935
-13 11 7 10.6491 -0.7949
-13 11 8 7.3370 0.4510
-13 11 9 1.6563 4.1745
-13 11 10 9.1263 2.3858
-13 11 11 -8.7111 3.9211
-13 11 12 5.8455 3.8743
-13 11 13 -6.4517 1.0355
-13 11 14 7.1850 0.3463
-13 11 15 -2.2359 1.2985
-13 11 16 10.7435 -1.6212
-13 11 17 -4.9111 2.3714
-13 11 18 4.7504 0.4787
-13 11 19 -3.8557 7.6132
-13 11 20 -5.1783 -1.8531
-13 11 21 2.8614 18.3913
-13 13 1 2.4395 -4.2257
-13 13 2 -3.8467 -1.8263
-13 13 3 4.1801 9.8034
-13 13 4 1.1743 -4.4198
-13 13 5 5.1737 12.7119
-13 13 6 5.5206 -4.6399
-13 13 7 3.9320 5.1457
-13 13 8 2.1491 -3.3449
-13 13 9 0.9308 0.1014
-13 13 12 -7.0240 -1.3860
-12 0 2 -45.9263 -9.2498
-12 0 4 -9.0959 -5.9953
-12 0 6 36.1063 -6.5038
-12 0 8 21.4510 -8.6761
-12 0 10 -13.3231 -5.3478
-12 0 12 -10.0660 0.4293
-12 0 14 9.6085 3.7506
-12 0 16 6.2495 5.8375
-12 0 18 2.7095 7.4907
-12 0 20 25.6746 7.6543
-12 0 22 36.5248 6.0881
-12 0 24 3.9260 3.1368
-12 0 26 -28.1266 0.4019
-12 0 28 -18.8247 -1.3486
-12 0 30 3.7017 -3.3602
-12 0 32 5.9964 -4.2927
-12 2 1 -31.4238 1.3055
-12 2 2 -54.8987 -1.7760
-12 2 3 -61.6446 0.4809
-12 2 4 -38.6823 0.6099
-12 2 5 -17.6198 -0.4525
-12 2 6 -16.7218 0.6136
-12 2 7 49.7261 -0.2560
-12 2 8 -4.8628 1.0652
-12 2 9 36.3732 -0.3827
-12 2 10 6.8782 2.4510
-12 2 11 -24.2535 -2.0273
-12 2 12 15.8431 0.3144
-12 2 13 -32.7596 -4.1212
-12 2 14 8.0809 -2.9072
-12 2 15 3.3682 -5.4508
-12 2 16 -9.0572 -2.4219
-12 2 17 15.8092 -4.8601
-12 2 18 -17.0268 -0.5471
-12 2 19 -1.2945 -1.8341
-12 2 20 -15.2305 -0.2173
-12 2 21 -9.8223 2.5684
-12 2 22 -12.7327 -0.5739
-12 2 23 1.4191 5.3209
-12 2 24 -11.0630 0.1858
-12 2 25 13.1368 2.9519
-12 2 26 -9.1490 2.8403
-12 2 27 10.1441 -0.9230
-12 2 28 -4.8346 4.4552
-12 2 29 0.0761 1.3754
-12 2 30 3.4722 2.6429
-12 2 31 -2.9344 5.9130
-12 2 32 6.4145 1.3587
-12 4 1 -4.7636 3.5246
-12 4 2 31.7760 1.9388
-12 4 3 -18.2424 2.4465
-12 4 4 10.0477 -0.3333
-12 4 5 -3.8087 0.7560
-12 4 6 -17.4900 -1.5889
-12 4 7 6.2254 0.6378
-12 4 8 -5.4827 -0.0800
-12 4 9 -8.6545 1.5707
-12 4 10 15.3570 0.6529
-12 4 11 -22.9204 1.6516
-12 4 12 4.5288 -0.9949
-12 4 13 -10.7849 0.7155
-12 4 14 -11.0872 -0.8029
-12 4 15 19.2594 0.3726
-12 4 16 3.9371 0.9352
-12 4 17 34.5184 0.5631
-12 4 18 23.2309 0.8420
-12 4 19 17.0186 -0.2592
-12 4 20 11.9120 0.9859
-12 4 21 -9.9804 -0.4393
-12 4 22 -5.4718 2.4108
-12 4 23 -17.9386 0.6864
-12 4 24 2.7679 2.1290
-12 4 25 -13.9887 -0.3391
-12 4 26 12.1548 0.2532
-12 4 27 -12.9123 -0.6394
-12 4 28 -2.2005 -1.2223
-12 4 29 -8.1279 4.3106
-12 4 30 -15.5460 -1.6840
-12 6 1 -16.7694 -0.2903
-12 6 2 22.0250 -1.8226
-12 6 3 28.9484 -2.3872
-12 6 4 15.3692 -1.8125
-12 6 5 37.9390 -1.3320
-12 6 6 -3.3434 -0.6652
-12 6 7 8.1498 0.0987
-12 6 8 -9.4621 1.2086
-12 6 9 0.7638 -0.5194
-12 6 10 -7.1314 1.4795
-12 6 11 16.3029 -0.6920
-12 6 12 -5.8480 1.3268
-12 6 13 8.2352 0.9233
-12 6 14 -3.3758 2.1241
-12 6 15 -15.5328 3.3113
-12 6 16 -1.7927 0.8011
-12 6 17 -18.7574 4.3296
-12 6 18 -2.0421 -1.8755
-12 6 19 -4.2658 2.0504
-12 6 20 -1.0974 -1.8751
-12 6 21 7.6279 -0.7109
-12 6 22 -3.1582 -1.3182
-12 6 23 12.8546 -2.0026
-12 6 24 -6.2174 -1.9997
-12 6 25 15.4206 -5.8963
-12 6 26 0.2902 -1.1526
-12 6 27 16.6295 -10.4017
-12 6 28 9.7501 0.3678
-12 6 29 15.0375 -8.1834
-12 8 1 10.1310 1.2155
-12 8 2 -2.9017 1.6491
-12 8 3 17.4789 1.5386
-12 8 4 9.6090 -1.7286
-12 8 5 1.3383 1.9921
-12 8 6 14.6473 -1.8260
-12 8 7 -17.3977 0.8311
-12 8 8 3.1195 -0.0877
-12 8 9 -2.1270 0.4955
-12 8 10 -0.0238 -0.3720
-12 8 11 25.9997 1.8527
-12 8 12 13.3371 -0.8835
-12 8 13 28.3965 0.9513
-12 8 14 8.9082 0.1349
-12 8 15 11.0649 -1.1306
-12 8 16 -17.8943 0.1924
-12 8 17 -0.6776 -1.0077
-12 8 18 -15.3946 0.5113
-12 8 19 0.2239 -0.7228
-12 8 20 26.3422 2.5536
-12 8 21 4.8221 0.0660
-12 8 22 44.7386 1.3534
-12 8 23 4.7969 4.0729
-12 8 24 17.0458 -3.8814
-12 8 25 2.2190 7.2471
-12 8 26 -6.2349 -7.4209
-12 8 27 0.3869 6.4596
-12 10 1 6.2425 -0.9423
-12 10 2 -3.6012 -1.3717
-12 10 3 -1.0326 -0.4503
-12 10 4 3.4907 -0.3165
-12 10 5 -7.7329 0.5560
-12 10 6 1.0589 2.1482
-12 10 7 -5.7753 -0.3240
-12 10 8 -8.1369 1.3193
-12 10 9 1.7414 -0.3872
-12 10 10 -5.4705 -2.4607
-12 10 11 2.3620 0.5939
-12 10 12 3.7947 -2.1428
-12 10 13 -2.9045 0.4479
-12 10 14 0.3243 1.3826
-12 10 15 -3.2531 1.7024
-12 10 16 -9.1882 1.3910
-12 10 17 -3.0800 2.9431
-12 10 18 -6.4424 -1.2126
-12 10 19 -9.9797 -0.3375
-12 10 20 2.4576 -4.8698
-12 10 21 -15.0548 -2.1582
-12 10 22 1.7260 -10.5282
-12 10 23 -10.3620 1.8063
-12 10 24 -4.0772 -11.2055
-12 12 1 4.4488 1.7224
-12 12 2 -10.9337 0.6098
-12 12 3 -2.3108 -4.6941
-12 12 4 -13.6629 -2.0431
-12 12 8 -5.8163 -0.6819
-12 12 9 0.0550 -2.6684
-12 12 10 2.3127 2.8578
-12 12 11 -0.4378 0.4605
-12 12 12 0.1736 3.8500
-12 12 13 -2.6552 0.6039
-12 12 14 -8.6056 1.9384
-12 12 15 -2.3089 0.2317
-12 12 16 -11.0710 -2.6994
-12 12 17 -3.7239 2.3917
-11 1 1 42.1351 -0.5861
-11 1 2 1.3066 -3.1441
-11 1 3 28.4746 -1.7053
-11 1 4 -28.6008 -1.4380
-11 1 5 -15.4304 -1.8603
-11 1 6 -15.0723 3.3418
-11 1 7 -7.9013 -0.9863
-11 1 8 10.1956 4.5532
-11 1 9 36.0803 1.3193
-11 1 10 4.2427 2.7864
-11 1 11 34.6182 3.2240
-11 1 12 -8.5438 1.9664
-11 1 13 -5.9203 4.4395
-11 1 14 3.3696 1.0026
-11 1 15 -16.1423 5.4198
-11 1 16 14.0095 -1.0626
-11 1 17 9.7754 5.1348
-11 1 18 -7.1582 -3.1569
-11 1 19 26.3675 3.5869
-11 1 20 -30.4087 -4.8333
-11 1 21 18.4882 0.9720
-11 1 22 -16.4074 -5.4726
-11 1 23 4.3674 -2.1659
-11 1 24 11.4037 -5.0623
-11 1 25 -1.0500 -3.5034
-11 1 26 10.1003 -4.1005
-11 1 27 0.7878 -3.1729
-11 1 28 -10.4177 -2.9091
-11 1 29 -0.1548 -2.0092
-11 1 30 -15.7571 -3.5214
-11 1 31 -4.9155 2.0778
-11 1 32 -5.4344 -5.4405
-11 3 1 19.9697 0.1638
-11 3 2 -2.9256 -0.2146
-11 3 3 -1.9371 1.0035
-11 3 4 17.9859 1.3012
-11 3 5 -48.0754 0.9961
-11 3 6 19.6785 1.4210
-11 3 7 -24.1552 0.7415
-11 3 8 13.0982 -0.8177
-11 3 9 45.3480 1.0213
-11 3 10 19.8074 -1.9117
-11 3 11 58.5515 1.2179
-11 3 12 26.7343 -1.7260
-11 3 13 9.0039 0.4105
-11 3 14 9.9493 -2.0206
-11 3 15 -26.7170 -0.8755
-11 3 16 -13.8091 -1.1795
-11 3 17 -18.1467 -0.9663
-11 3 18 -10.1022 0.7142
-11 3 19 -0.8675 -0.2557
-11 3 20 10.1737 1.9169
-11 3 21 -3.2471 -0.4557
-11 3 22 11.5897 3.0515
-11 3 23 -11.8235 0.2434
-11 3 24 2.1440 3.7034
-11 3 25 -6.7679 2.0283
-11 3 26 8.1283 2.9382
-11 3 27 3.0465 0.5461
-11 3 28 15.4778 1.9152
-11 3 29 1.9410 -1.0984
-11 3 30 7.1580 0.4132
-11 3 31 -2.3671 2.6822
-11 5 1 15.1950 0.1648
-11 5 2 -4.2667 2.1695
-11 5 3 5.5585 0.5448
-11 5 4 10.3681 2.1033
-11 5 5 18.8492 -0.0588
-11 5 6 -0.7693 0.5045
-11 5 7 30.3443 0.1782
-11 5 8 -17.2243 -0.5901
-11 5 9 19.8772 1.1426
-11 5 10 -5.5483 -0.1793
-11 5 11 10.8044 1.1013
-11 5 12 12.1263 -0.9217
-11 5 13 9.0964 -0.3111
-11 5 14 9.3101 -1.8877
-11 5 15 -2.4964 -1.3233
-11 5 16 4.0706 -0.5558
-11 5 17 -10.2667 0.0524
-11 5 18 13.8718 0.3810
-11 5 19 2.9622 1.8184
-11 5 20 19.5122 -0.1872
-11 5 21 17.2520 1.0365
-11 5 22 1.4477 0.7820
-11 5 23 15.5573 0.3919
-11 5 24 -22.5855 3.1645
-11 5 25 7.1870 1.2798
-11 5 26 -24.1663 5.1703
-11 5 27 -2.4437 0.6762
-11 5 28 -8.8090 5.6759
-11 5 29 -14.1190 1.8678
-11 5 30 -0.4221 2.9375
-11 7 1 -19.2765 -0.0392
-11 7 2 -10.9801 -2.1335
-11 7 3 -15.2499 0.7566
-11 7 4 -1.4423 0.5588
-11 7 5 14.8011 0.8973
-11 7 6 18.0382 1.7047
-11 7 7 10.7775 1.0342
-11 7 8 23.6310 1.5989
-11 7 9 -24.3110 -0.1809
-11 7 10 2.5264 0.9051
-11 7 11 -31.1873 -1.3206
-11 7 12 -21.0842 -0.3269
-11 7 13 -7.1573 -1.1748
-11 7 14 -16.9923 0.4765
-11 7 15 3.5698 -1.5814
-11 7 16 -1.1442 2.6007
-11 7 17 -9.0797 -1.6216
-11 7 18 -3.7461 0.7151
-11 7 19 -22.9528 -0.6977
-11 7 20 -8.4307 -3.4896
-11 7 21 -25.7820 -1.5841
-11 7 22 4.2311 -4.3066
-11 7 23 -21.3986 -1.3804
-11 7 24 7.3743 -3.0181
-11 7 25 -13.9714 4.1272
-11 7 26 -9.8487 -1.9237
-11 7 27 -3.4849 8.4626
-11 7 28 -14.0452 -0.5159
-11 9 1 -4.1117 0.4020
-11 9 2 2.4792 4.3159
-11 9 3 5.5267 -0.0566
-11 9 4 -7.2193 1.9011
-11 9 5 10.6497 0.9076
-11 9 6 2.9329 -0.9079
-11 9 7 2.6450 1.4412
-11 9 8 5.2659 -0.2248
-11 9 9 -6.5944 -0.4296
-11 9 10 -15.5914 1.8841
-11 9 11 -2.5523 -1.3744
-11 9 12 -25.1051 1.1740
-11 9 13 4.7482 0.0753
-11 9 14 -3.6137 -0.5361
-11 9 15 4.5685 1.4478
-11 9 16 12.0161 -0.6244
-11 9 17 4.6284 2.8050
-11 9 18 -0.1539 0.1813
-11 9 19 12.2618 3.0795
-11 9 20 -5.5342 2.4776
-11 9 21 21.4760 -0.3895
-11 9 23 21.2777 -4.0208
-11 9 24 17.0568 3.7538
-11 9 25 10.9416 -4.3573
-11 11 1 5.3901 -0.9634
-11 11 2 -7.6672 -1.5652
-11 11 3 9.5661 -0.2618
-11 11 4 -2.6951 -0.8996
-11 11 5 6.1547 0.9964
-11 11 6 4.2869 -0.0985
-11 11 7 1.4667 0.9315
-11 11 8 4.3507 0.5819
-11 11 9 2.0061 -1.9454
-11 11 10 3.5683 0.2485
-11 11 11 5.7426 -2.1505
-11 11 12 7.7842 -0.5361
-11 11 13 6.8176 1.0478
-11 11 14 7.7031 1.8280
-11 11 15 8.2340 3.1425
-11 11 16 -0.1776 5.4395
-11 11 17 12.0399 5.4958
-11 11 18 -5.2626 6.0471
-11 11 19 8.6791 5.8304
-11 11 20 -2.7457 6.2443
-11 11 21 -2.7130 -1.6061
-11 13 1 -10.8992 10.1267
-11 13 2 8.4685 -3.1811
-11 13 3 -5.6352 -3.0699
-11 13 4 5.1548 2.6057
-11 13 5 -5.6116 -7.5116
-11 13 6 -7.0140 5.7314
-11 13 7 -10.0626 -1.3493
-11 13 8 -13.2356 2.1030
-11 13 9 -11.4200 -1.1321
-11 13 10 -8.0693 -0.8010
-11 13 13 -6.9010 -3.0312
-11 13 14 -1.1457 -5.0865
-10 0 2 40.6152 14.7315
-10 0 4 28.6321 5.6667
-10 0 6 -18.0391 -4.7914
-10 0 8 -28.0362 -7.2507
-10 0 10 -16.5975 -6.3107
-10 0 12 -27.5732 -6.1189
-10 0 14 -39.1044 -4.6913
-10 0 16 -12.0703 -1.2430
-10 0 18 21.3052 2.7474
-10 0 20 4.0382 5.8077
-10 0 22 -38.3316 7.2559
-10 0 24 -37.7233 7.1011
-10 0 26 -2.5491 4.8972
-10 0 28 10.6586 1.7914
-10 0 30 0.0268 0.6077
-10 0 32 -2.2447 0.1777
-10 2 1 6.3169 -3.8971
-10 2 2 34.7152 -2.7688
-10 2 3 85.0515 -2.9166
-10 2 4 43.2477 -2.3395
-10 2 5 84.0661 -0.5120
-10 2 6 44.7747 0.0790
-10 2 7 -5.9695 1.7307
-10 2 8 43.9261 2.3960
-10 2 9 -44.9530 1.8071
-10 2 10 29.6354 2.5626
-10 2 11 2.9660 -0.7884
-10 2 12 5.4865 2.2799
-10 2 13 34.9530 -3.5624
-10 2 14 -6.2675 1.9159
-10 2 15 11.5454 -3.8024
-10 2 16 0.5339 0.3909
-10 2 17 -9.8207 -2.5660
-10 2 18 8.7677 -1.5257
-10 2 19 -1.2347 -1.7253
-10 2 20 6.8126 -3.1573
-10 2 21 10.9051 -1.5718
-10 2 22 0.6454 -4.1270
-10 2 23 8.5444 -1.6622
-10 2 24 -0.0448 -4.2970
-10 2 25 1.3810 0.4301
-10 2 26 6.6588 -4.3680
-10 2 27 2.6594 3.5719
-10 2 28 11.5684 -2.4000
-10 2 29 8.3507 1.2986
-10 2 30 4.5192 2.9875
-10 2 31 6.0143 -3.5557
-10 2 32 -6.0190 6.4053
-10 4 1 -3.9128 0.7071
-10 4 2 -24.9911 1.0335
-10 4 3 22.0354 0.2992
-10 4 4 -16.3191 0.9748
-10 4 5 4.7032 0.3815
-10 4 6 3.7389 1.0419
-10 4 7 -33.7877 -0.2346
-10 4 8 -6.5520 0.4146
-10 4 9 -39.1364 -1.3274
-10 4 10 -23.3851 0.3652
-10 4 11 -10.5111 -1.2590
-10 4 12 -9.1013 1.4502
-10 4 13 13.8450 0.2750
-10 4 14 13.0546 1.1310
-10 4 15 9.0514 1.2602
-10 4 16 4.8425 -0.1835
-10 4 17 -13.9462 0.4388
-10 4 18 -15.9979 -0.0903
-10 4 19 -22.9957 -0.8093
-10 4 20 -10.0031 0.4822
-10 4 21 -11.5427 -1.6812
-10 4 22 10.2966 0.9069
-10 4 23 -4.9886 -1.0622
-10 4 24 6.0879 1.6960
-10 4 25 -9.0689 3.4630
-10 4 26 -11.9074 1.6449
-10 4 27 -5.5829 6.9334
-10 4 28 -9.1568 1.0423
-10 4 29 2.3213 2.1774
-10 4 30 4.5536 0.6826
-10 6 1 25.4760 -0.0999
-10 6 2 5.3410 -0.8569
-10 6 3 -10.7186 0.9328
-10 6 4 1.6073 -0.1277
-10 6 5 -27.4888 0.9553
-10 6 6 6.0323 1.6277
-10 6 7 -2.1597 0.1930
-10 6 8 4.9958 1.6388
-10 6 9 8.3446 -0.0205
-10 6 10 3.4785 1.0422
-10 6 11 -13.7599 0.0965
-10 6 12 7.4547 0.8521
-10 6 13 -18.4648 0.3757
-10 6 14 7.1936 -0.1070
-10 6 15 1.8402 0.2458
-10 6 16 1.7441 -0.4421
-10 6 17 6.8557 -0.3225
-10 6 18 -1.7774 0.0653
-10 6 19 -5.1341 0.8692
-10 6 20 -1.9228 -1.4119
-10 6 21 -6.2848 2.3665
-10 6 22 5.5128 -3.7021
-10 6 23 2.3957 0.0456
-10 6 24 18.4443 -4.8264
-10 6 25 3.9973 -3.1379
-10 6 26 20.8190 -5.8159
-10 6 27 0.8187 -2.9477
-10 6 28 11.3105 -4.4259
-10 6 29 1.5207 -2.2130
-10 8 1 -3.0778 -0.2331
-10 8 2 6.0834 -2.7888
-10 8 3 -23.6768 -0.4468
-10 8 4 -15.1865 0.1673
-10 8 5 -15.4210 -1.3500
-10 8 6 -30.2600 1.4451
-10 8 7 17.4118 -0.6993
-10 8 8 -12.0754 0.0195
-10 8 9 26.3349 0.8345
-10 8 10 10.2933 -0.5553
-10 8 11 2.9458 0.7946
-10 8 12 1.6621 0.4988
-10 8 13 -15.9858 0.7342
-10 8 14 -10.5634 -0.1993
-10 8 15 -12.0471 0.8908
-10 8 16 7.4070 -1.4775
-10 8 17 1.0748 -1.1475
-10 8 18 14.9919 -0.5328
-10 8 19 6.3972 -2.9245
-10 8 20 -28.1709 1.1112
-10 8 21 3.3319 -1.9104
-10 8 22 -68.8339 3.3467
-10 8 23 1.0017 -1.1224
-10 8 24 -50.4810 7.1675
-10 8 25 -0.2887 -0.6694
-10 8 26 -11.8314 9.8820
-10 8 27 -3.4613 2.2691
-10 10 1 -7.9227 0.8301
-10 10 2 7.3756 -0.6269
-10 10 3 -6.2328 0.6328
-10 10 4 -2.2398 0.3510
-10 10 5 -5.7485 0.3602
-10 10 6 -8.1693 0.5304
-10 10 7 -5.8921 0.2827
-10 10 8 -0.3466 -0.8607
-10 10 9 -6.5309 0.4311
-10 10 10 2.5345 -1.8855
-10 10 11 -7.2622 0.3052
-10 10 12 -8.6038 -1.9054
-10 10 13 -6.1561 0.2778
-10 10 14 -13.1896 -1.6474
-10 10 15 -2.6170 -1.4381
-10 10 16 1.1239 -1.2411
-10 10 17 4.2298 -3.7923
-10 10 18 15.2628 -2.9468
-10 10 19 11.2371 -1.1539
-10 10 20 12.3079 -6.2440
-10 10 21 10.4450 4.3136
-10 10 22 4.9053 -5.6305
-10 10 23 1.8580 5.3970
-10 10 24 6.7517 -2.7911
-10 12 1 -1.6876 -4.4866
-10 12 2 -6.2322 1.0925
-10 12 3 -2.2891 1.9501
-10 12 4 2.2820 -2.1599
-10 12 5 4.6831 0.8895
-10 12 6 13.6003 -2.0509
-10 12 7 11.4355 0.1644
-10 12 8 12.4538 -1.2812
-10 12 9 12.9633 3.0204
-10 12 10 0.4375 -0.1992
-10 12 11 10.2944 3.1905
-10 12 12 -4.5448 1.8794
-10 12 13 3.7206 2.2507
-10 12 14 1.9558 2.4074
-10 12 15 -4.4653 1.2760
-10 12 16 8.5132 1.9694
-10 12 17 -6.2975 -2.8113
-10 12 18 8.4756 2.8632
-10 12 19 -1.6013 -4.1590
-9 1 1 -17.9127 7.6950
-9 1 2 9.5387 -0.8043
-9 1 3 -40.8564 4.6824
-9 1 4 19.1643 2.7236
-9 1 5 -8.5242 -1.3308
-9 1 6 -0.3677 2.2651
-9 1 7 -5.4175 -5.8341
-9 1 8 -16.2715 0.1845
-9 1 9 -55.8258 -5.6383
-9 1 10 6.5482 1.1973
-9 1 11 -74.1454 -1.8637
-9 1 12 30.0671 4.3676
-9 1 13 -28.6475 1.5027
-9 1 14 10.5251 6.0506
-9 1 15 14.0579 3.5361
-9 1 16 -23.4691 4.6635
-9 1 17 15.2597 5.1377
-9 1 18 -16.6522 1.8843
-9 1 19 1.4278 4.9141
-9 1 20 20.5120 -0.5861
-9 1 21 -5.7502 3.5367
-9 1 22 28.9417 -3.0220
-9 1 23 -10.3711 2.5321
-9 1 24 0.8263 -4.6788
-9 1 25 -16.1267 -0.2953
-9 1 26 -15.4559 -4.8022
-9 1 27 -18.4639 -3.4858
-9 1 28 -3.5844 -4.8317
-9 1 29 -11.4576 -3.0092
-9 1 30 7.3818 -4.4106
-9 1 31 1.6181 -2.3257
-9 1 32 4.3326 -2.8581
-9 3 1 -33.9228 -3.5785
-9 3 2 22.5062 -2.2980
-9 3 3 -39.2068 -1.4802
-9 3 4 12.4012 -1.0312
-9 3 5 42.8083 0.7606
-9 3 6 14.9443 -0.3198
-9 3 7 81.2135 1.4727
-9 3 8 15.1150 -0.0065
-9 3 9 22.3976 0.9287
-9 3 10 -7.5143 -0.8480
-9 3 11 -35.0378 0.2431
-9 3 12 -32.6536 -2.1648
-9 3 13 -26.1557 -0.2113
-9 3 14 -27.7492 -2.7229
-9 3 15 3.3455 -0.2785
-9 3 16 -1.0907 -2.3280
-9 3 17 5.5311 -0.1646
-9 3 18 11.6559 -0.3217
-9 3 19 -6.4692 -0.0762
-9 3 20 5.5343 2.1910
-9 3 21 -3.5228 0.3076
-9 3 22 6.8744 2.5106
-9 3 23 10.9991 -0.3406
-9 3 24 15.7941 1.2589
-9 3 25 14.1525 -1.4113
-9 3 26 8.7575 -0.1397
-9 3 27 5.4665 1.8657
-9 3 28 -5.7943 -2.0096
-9 3 29 3.7688 6.3570
-9 3 30 -5.0187 -2.5346
-9 3 31 8.5922 3.4308
-9 5 1 -27.0659 1.7329
-9 5 2 -21.3864 2.8572
-9 5 3 -18.2840 1.4965
-9 5 4 -40.2026 1.7259
-9 5 5 -20.1419 0.6333
-9 5 6 -28.6707 -0.0195
-9 5 7 -23.5595 -0.3449
-9 5 8 -5.4279 -0.8908
-9 5 9 -12.2760 -1.1303
-9 5 10 -6.8970 -0.9229
-9 5 11 -8.7935 -1.3762
-9 5 12 -14.1034 0.1596
-9 5 13 -19.4899 -0.8820
-9 5 14 -0.2455 0.6575
-9 5 15 -11.6722 0.0742
-9 5 16 11.8523 -0.8294
-9 5 17 10.3411 0.4334
-9 5 18 -5.2574 -1.6143
-9 5 19 8.7187 0.4232
-9 5 20 -32.9428 -0.4868
-9 5 21 -9.2937 1.4981
-9 5 22 -35.1373 1.1304
-9 5 23 -12.3282 1.9882
-9 5 24 -12.2813 3.5679
-9 5 25 -7.1409 0.0985
-9 5 26 3.0887 5.0189
-9 5 27 -10.1614 -2.1124
-9 5 28 -1.4857 2.9374
-9 5 29 -10.5856 -5.5737
-9 5 30 -7.2501 1.0415
-9 7 1 27.7575 -2.0631
-9 7 2 9.0523 -0.1646
-9 7 3 36.3000 -1.4848
-9 7 4 20.4669 -2.4008
-9 7 5 -2.0076 0.0198
-9 7 6 4.8590 -2.9149
-9 7 7 -26.3182 0.6445
-9 7 8 -17.6750 -1.9088
-9 7 9 -6.1248 0.9830
-9 7 10 -16.8613 -1.5040
-9 7 11 12.4415 1.1737
-9 7 12 2.2267 -0.7508
-9 7 13 4.4566 0.9298
-9 7 14 6.0312 0.5818
-9 7 15 -1.1571 1.7576
-9 7 16 -6.5283 0.6334
-9 7 17 10.3095 2.0726
-9 7 18 -2.6503 0.7933
-9 7 19 19.7812 -0.5739
-9 7 20 13.6467 1.3145
-9 7 21 15.8224 -1.9023
-9 7 22 11.4166 -0.7964
-9 7 23 9.0824 0.4468
-9 7 24 3.5217 -4.1380
-9 7 25 6.4631 0.2927
-9 7 26 14.6628 -5.7807
-9 7 27 1.4397 -3.6442
-9 7 28 22.8419 -6.5129
-9 9 1 -1.3816 0.4587
-9 9 2 -7.0826 -0.5904
-9 9 3 -1.8249 -0.7633
-9 9 4 9.1123 -2.2628
-9 9 5 -6.2788 -2.2259
-9 9 6 1.4999 -1.8738
-9 9 7 -5.6283 -2.8603
-9 9 8 -10.7749 0.9064
-9 9 9 3.8308 -1.0327
-9 9 10 6.7390 2.4354
-9 9 11 10.6507 1.6387
-9 9 12 31.8028 2.0811
-9 9 13 6.6456 2.1694
-9 9 14 20.7099 1.1482
-9 9 15 -4.6350 1.4474
-9 9 16 -7.6502 -0.1078
-9 9 17 -14.8719 1.1138
-9 9 18 -4.9872 -0.2184
-9 9 19 -20.1418 1.5472
-9 9 20 14.7156 0.9515
-9 9 21 -22.3604 3.2101
-9 9 22 9.1243 1.9630
-9 9 23 -18.6859 3.8235
-9 9 24 -5.6063 3.5934
-9 9 25 -5.5749 0.8707
-9 11 1 9.2843 -0.0658
-9 11 2 10.7401 2.1197
-9 11 3 3.0516 -0.9073
-9 11 4 2.6917 1.6013
-9 11 5 -1.8129 -0.6599
-9 11 6 -7.4622 0.4538
-9 11 7 -7.3254 -1.0744
-9 11 8 -7.2751 -0.0746
-9 11 9 -9.1678 -0.7606
-9 11 10 -1.1968 -0.7780
-9 11 11 -3.8344 -0.5973
-9 11 12 0.1431 -0.7763
-9 11 13 2.8478 -1.2363
-9 11 14 -2.1185 0.0964
-9 11 15 1.0455 -0.3353
-9 11 16 -3.8391 1.6543
-9 11 17 -7.5573 -1.1585
-9 11 18 -3.6278 3.8456
-9 11 19 -7.9096 -6.0057
-9 11 20 -1.5432 3.1402
-9 11 21 3.5726 -7.6958
-9 11 22 -1.5733 -0.3952
-9 13 1 -2.1863 -7.6996
-9 13 2 -2.8795 3.3735
-9 13 3 2.1057 0.0264
-9 13 4 -6.8677 0.2945
-9 13 5 3.1830 3.6645
-9 13 6 2.5388 -4.7021
-9 13 7 8.1170 -2.8340
-9 13 8 13.1983 -3.1851
-9 13 9 12.8859 -3.9514
-9 13 10 11.0789 -0.5096
-9 13 11 13.3032 2.8343
-9 13 14 -2.2315 -1.0656
-9 13 15 6.0715 -1.0909
-8 0 2 -22.6532 -7.2062
-8 0 4 7.6710 -5.3901
-8 0 6 55.3028 1.1907
-8 0 8 44.6716 2.6690
-8 0 10 13.2399 -2.3400
-8 0 12 25.4915 -7.1675
-8 0 14 54.5592 -8.0932
-8 0 16 36.0191 -6.3223
-8 0 18 -16.3172 -3.7622
-8 0 20 -24.8142 -0.7309
-8 0 22 22.9130 2.3829
-8 0 24 52.4080 4.6481
-8 0 26 31.8517 6.2462
-8 0 28 8.8075 5.6625
-8 0 30 7.7259 0.0198
-8 0 32 6.7225 -6.5942
-8 2 1 25.6388 -1.8222
-8 2 2 -18.9477 2.7789
-8 2 3 -71.4463 -0.6601
-8 2 4 -39.9483 -0.8643
-8 2 5 -130.9440 0.9108
-8 2 6 -67.4739 -1.7293
-8 2 7 -56.2329 0.9231
-8 2 8 -90.4958 -0.6827
-8 2 9 33.2766 0.2209
-8 2 10 -79.7334 0.4395
-8 2 11 29.2408 1.3235
-8 2 12 -33.5943 1.4447
-8 2 13 -9.2452 2.6530
-8 2 14 10.6069 3.0431
-8 2 15 -12.2352 0.6515
-8 2 16 21.8309 3.8428
-8 2 17 -2.7505 -3.1446
-8 2 18 6.5242 2.3632
-8 2 19 -8.0996 -5.5135
-8 2 20 -9.2101 0.1171
-8 2 21 -11.9954 -6.0995
-8 2 22 -12.0884 -1.7797
-8 2 23 -2.5796 -5.1439
-8 2 24 -9.2653 -3.2366
-8 2 25 6.8615 -4.8521
-8 2 26 -11.5156 -2.9185
-8 2 27 2.6160 -6.1114
-8 2 28 -16.6459 -1.9755
-8 2 29 -9.4964 -3.5347
-8 2 30 -13.5068 -2.8467
-8 2 31 -12.0501 1.8671
-8 2 32 -2.5201 -3.0031
-8 4 1 49.8619 -0.0976
-8 4 2 18.7793 -0.5285
-8 4 3 12.6955 0.4687
-8 4 4 14.0124 0.3080
-8 4 5 -10.5052 0.2502
-8 4 6 -2.0644 1.0268
-8 4 7 8.3750 -0.2608
-8 4 8 14.2062 0.7858
-8 4 9 25.9385 -0.7661
-8 4 10 34.7799 -0.4688
-8 4 11 13.5215 -1.2781
-8 4 12 14.8721 -1.2093
-8 4 13 -12.4865 -1.5878
-8 4 14 -21.0751 -0.3288
-8 4 15 -21.5868 -1.6181
-8 4 16 -23.4010 -0.0016
-8 4 17 -1.1067 -1.4189
-8 4 18 2.3076 -1.2287
-8 4 19 23.8360 -0.9389
-8 4 20 12.3796 -1.8430
-8 4 21 24.5440 0.1584
-8 4 22 -0.2309 -2.0459
-8 4 23 14.2332 0.7230
-8 4 24 -1.1375 -2.4406
-8 4 25 14.2111 -1.9750
-8 4 26 16.2423 -1.0516
-8 4 27 13.3609 -4.7458
-8 4 28 21.6281 0.5718
-8 4 29 3.1306 -0.8799
-8 4 30 10.1679 -0.5104
-8 6 1 -42.3749 2.3314
-8 6 2 -3.0054 1.2303
-8 6 3 -19.4539 0.9688
-8 6 4 0.1850 2.1858
-8 6 5 8.2494 -0.7041
-8 6 6 4.6405 1.3091
-8 6 7 -1.6588 -1.4573
-8 6 8 17.9279 0.4776
-8 6 9 -7.8272 -1.1132
-8 6 10 23.1870 0.2390
-8 6 11 20.5814 -0.2269
-8 6 12 5.7389 -0.1869
-8 6 13 34.8950 -0.4635
-8 6 14 -13.2980 -0.0088
-8 6 15 8.5465 -1.8536
-8 6 16 -12.9590 0.4860
-8 6 17 -13.5081 -1.5586
-8 6 18 0.1932 0.8373
-8 6 19 -8.1567 0.2519
-8 6 20 12.0195 1.9541
-8 6 21 -5.2522 0.6089
-8 6 22 11.8119 1.8902
-8 6 23 -14.1776 0.1998
-8 6 24 -1.8899 -0.0259
-8 6 25 -11.6022 0.2710
-8 6 26 -14.0736 0.4605
-8 6 27 1.4463 -0.5713
-8 6 28 -15.2899 2.3052
-8 6 29 2.6003 -1.4075
-8 8 1 -14.1533 -2.2794
-8 8 2 -14.8609 -0.0553
-8 8 3 14.7748 -1.6102
-8 8 4 -6.3882 -0.4150
-8 8 5 29.5654 0.2225
-8 8 6 17.4615 -0.9873
-8 8 7 9.3201 1.0397
-8 8 8 13.6718 -0.2156
-8 8 9 -12.9253 -0.2842
-8 8 10 -9.2713 1.1307
-8 8 11 -9.6578 -0.9237
-8 8 12 -6.7718 0.2719
-8 8 13 5.1846 -0.0544
-8 8 14 15.9249 -0.8053
-8 8 15 9.2815 0.7492
-8 8 16 11.8534 -0.3486
-8 8 17 2.0724 1.9471
-8 8 18 -8.7038 -0.3121
-8 8 19 -1.1894 2.0651
-8 8 20 8.2827 0.4294
-8 8 21 3.2471 -1.7767
-8 8 22 45.2269 3.1047
-8 8 23 3.1200 -5.9240
-8 8 24 38.4334 4.6577
-8 8 25 -2.2047 -5.5108
-8 8 26 0.7635 4.0012
-8 8 27 -2.3826 -3.5614
-8 10 1 0.9784 1.1990
-8 10 2 -14.7864 -0.5229
-8 10 3 -0.4283 0.9348
-8 10 4 -4.4940 1.2194
-8 10 5 3.9110 -0.5840
-8 10 6 7.8831 0.8534
-8 10 7 3.8377 -0.0843
-8 10 8 4.0053 -0.4664
-8 10 9 -8.1392 1.2157
-8 10 10 -7.7327 -0.6856
-8 10 11 -17.1848 0.9502
-8 10 12 -7.0018 -0.6786
-8 10 13 -8.9485 -1.8025
-8 10 14 2.7881 -1.1887
-8 10 15 6.3928 -4.3150
-8 10 16 -0.1352 -1.8274
-8 10 17 9.1574 -2.9668
-8 10 18 -15.0719 -0.4864
-8 10 19 -0.4231 0.7162
-8 10 20 -15.8683 3.0172
-8 10 21 -5.5672 3.6987
-8 10 22 0.5576 2.8407
-8 10 23 -0.1630 4.9598
-8 10 24 9.0042 -2.3781
-8 12 1 -0.5179 3.6778
-8 12 2 17.5201 -1.3344
-8 12 3 6.1544 -2.6724
-8 12 4 7.8924 1.1054
-8 12 5 8.1564 -1.2704
-8 12 6 -8.6467 1.5078
-8 12 7 4.9121 2.5996
-8 12 8 -14.7120 1.7595
-8 12 9 -1.1440 1.7558
-8 12 10 -5.2347 3.0581
-8 12 11 -6.1467 0.6954
-8 12 12 4.0657 2.6304
-8 12 13 -4.0534 0.6099
-8 12 14 6.2480 1.0151
-8 12 15 5.0134 0.4120
-8 12 16 5.7825 -0.0841
-8 12 17 8.6926 4.2494
-8 12 18 1.6009 -0.9339
-8 14 3 3.2428 -4.2854
-8 14 4 0.4709 2.5092
-8 14 5 5.1584 0.0706
-8 14 6 -4.1222 -3.2713
-8 14 7 0.5741 2.9029
-8 14 8 -0.1213 -13.3673
-8 14 9 -3.5463 -2.8438
-7 1 1 -10.9191 5.3566
-7 1 2 -53.2792 8.0977
-7 1 3 42.5533 1.9155
-7 1 4 -66.2174 5.3597
-7 1 5 26.4177 -1.1137
-7 1 6 -16.0489 0.5091
-7 1 7 -2.8096 -1.8281
-7 1 8 33.2335 -0.4231
-7 1 9 21.3227 -2.7182
-7 1 10 11.0444 1.4021
-7 1 11 50.5870 -4.1047
-7 1 12 -37.3365 2.3803
-7 1 13 32.6796 -3.1210
-7 1 14 -32.9840 2.8680
-7 1 15 3.7832 -0.8555
-7 1 16 15.8459 4.2664
-7 1 17 1.6304 0.3360
-7 1 18 35.9901 4.6980
-7 1 19 7.6639 2.6170
-7 1 20 2.0757 3.2483
-7 1 21 3.6261 5.3763
-7 1 22 -29.8544 2.4232
-7 1 23 -0.1051 5.1150
-7 1 24 -18.3691 2.2587
-7 1 25 5.1572 3.8747
-7 1 26 5.0574 0.5612
-7 1 27 13.9418 2.0627
-7 1 28 7.3124 -1.7748
-7 1 29 16.5240 -3.7763
-7 1 30 1.4876 -3.4332
-7 1 31 8.9257 -8.9575
-7 1 32 1.4519 -4.1165
-7 3 1 -2.3168 -0.2233
-7 3 2 -18.7915 -2.9435
-7 3 3 58.8168 -1.8255
-7 3 4 2.7664 -1.9727
-7 3 5 3.7762 -2.3108
-7 3 6 5.7186 -1.1427
-7 3 7 -73.7760 -0.7794
-7 3 8 -1.3490 0.5107
-7 3 9 -59.3695 0.9372
-7 3 10 9.9150 1.4934
-7 3 11 2.4665 0.8250
-7 3 12 28.2668 -0.0821
-7 3 13 25.6839 0.1840
-7 3 14 24.1972 -2.2463
-7 3 15 12.8205 0.7633
-7 3 16 2.2849 -2.4288
-7 3 17 3.2089 1.4135
-7 3 18 -7.6216 -1.9477
-7 3 19 1.5954 0.2349
-7 3 20 1.3616 -1.6242
-7 3 21 -7.4387 -2.4988
-7 3 22 5.5894 -0.4736
-7 3 23 -21.8635 -3.4573
-7 3 24 -3.5750 -0.0496
-7 3 25 -23.5573 -1.4540
-7 3 26 -5.7504 -1.0480
-7 3 27 -10.5506 -1.8399
-7 3 28 3.3762 -1.2021
-7 3 29 -2.4433 -5.1253
-7 3 30 4.9481 -0.9465
-7 3 31 -6.1064 -3.1762
-7 5 1 6.8869 0.5770
-7 5 2 33.9947 -1.0368
-7 5 3 6.8807 -1.1583
-7 5 4 45.8834 -2.4484
-7 5 5 15.6326 -1.7572
-7 5 6 15.1329 -2.2479
-7 5 7 23.0221 -1.2189
-7 5 8 -25.1479 -0.9704
-7 5 9 9.8864 -0.2968
-7 5 10 -18.1306 -0.0781
-7 5 11 1.3093 0.0546
-7 5 12 14.3505 -0.4697
-7 5 13 19.0447 -0.0144
-7 5 14 17.7699 -0.5489
-7 5 15 25.7576 0.0832
-7 5 16 -1.3750 0.3369
-7 5 17 2.3351 0.2938
-7 5 18 -2.3426 -0.1564
-7 5 19 -8.1134 0.8911
-7 5 20 16.6757 -1.1117
-7 5 21 9.2302 1.9704
-7 5 22 22.1259 -0.0403
-7 5 23 15.1443 2.8817
-7 5 24 1.6333 0.2313
-7 5 25 1.6982 2.9029
-7 5 26 -18.6289 -1.2933
-7 5 27 0.2260 1.6957
-7 5 28 -16.7830 -0.4793
-7 5 29 12.4113 1.7552
-7 5 30 -4.1319 1.4994
-7 7 1 5.2258 1.5455
-7 7 2 0.3800 0.1716
-7 7 3 -18.2920 0.9347
-7 7 4 -18.5846 1.0121
-7 7 5 0.7291 -0.1428
-7 7 6 -18.8298 1.5128
-7 7 7 25.1138 -0.3147
-7 7 8 -1.1630 0.2736
-7 7 9 11.7880 0.1590
-7 7 10 9.9883 -0.7770
-7 7 11 -11.2184 0.6548
-7 7 12 3.0535 -0.8455
-7 7 13 -8.6164 1.7449
-7 7 14 -4.3608 -0.9545
-7 7 15 3.2647 1.5339
-7 7 16 0.2532 -0.0411
-7 7 17 0.7353 -1.1647
-7 7 18 -0.9527 1.1843
-7 7 19 -5.0905 -2.6403
-7 7 20 -12.8877 1.1263
-7 7 21 2.7297 -2.3983
-7 7 22 -9.9509 1.2171
-7 7 23 13.1669 -4.1409
-7 7 24 6.1829 0.1862
-7 7 25 11.2375 -4.7203
-7 7 26 5.5771 -4.0619
-7 7 27 6.3671 0.7966
-7 7 28 -6.1708 -6.5593
-7 9 1 9.4590 -1.0774
-7 9 2 13.2499 -0.4665
-7 9 3 -3.0437 -0.1925
-7 9 4 -1.1711 -0.4688
-7 9 5 -5.6145 0.4176
-7 9 6 3.3684 0.7229
-7 9 7 5.4525 1.1600
-7 9 8 23.6236 -0.6337
-7 9 9 15.1902 1.3831
-7 9 10 18.7388 -2.2859
-7 9 11 10.9117 -0.2436
-7 9 12 -13.7403 -1.3511
-7 9 13 -0.5178 -1.9280
-7 9 14 -25.4768 0.5689
-7 9 15 -4.0596 -1.8294
-7 9 16 -1.9124 1.7079
-7 9 17 -0.6455 -0.5170
-7 9 18 10.5139 0.0025
-7 9 19 -0.2627 1.3020
-7 9 20 -5.7248 -4.7731
-7 9 21 -0.8900 3.0647
-7 9 22 -10.4969 -7.9943
-7 9 23 -0.1205 4.2920
-7 9 24 4.4302 -7.4391
-7 9 25 -4.3183 5.1551
-7 11 1 -2.2452 -1.8120
-7 11 2 -19.1247 -0.5510
-7 11 3 -4.3691 2.3514
-7 11 4 -11.9841 0.1016
-7 11 5 -9.1965 3.6565
-7 11 6 -0.9928 1.3719
-7 11 7 -2.7589 1.9195
-7 11 8 2.0464 0.8470
-7 11 9 8.5251 -1.6352
-7 11 10 -0.3283 -0.5000
-7 11 11 5.5468 -3.6554
-7 11 12 -0.9482 -1.4967
-7 11 13 -10.3198 -1.2456
-7 11 14 1.0329 -1.9414
-7 11 15 -16.5614 1.2854
-7 11 16 8.4497 -2.4666
-7 11 17 -2.7605 0.2214
-7 11 18 16.4270 -3.9802
-7 11 19 12.7358 -2.3813
-7 11 20 12.0398 -2.6682
-7 11 21 10.9516 -5.1067
-7 11 22 0.3786 3.6482
-7 13 1 -0.5538 3.0447
-7 13 2 -5.4358 -4.9468
-7 13 3 -12.9968 -3.3662
-7 13 4 6.3480 -4.3595
-7 13 5 -12.3254 -8.0120
-7 13 6 7.4264 1.0630
-7 13 7 -10.4965 -0.8973
-7 13 8 -1.8751 2.6901
-7 13 9 -10.9221 6.5120
-7 13 10 -5.7243 0.9330
-7 13 11 -10.6824 4.6449
-7 13 12 -3.6601 0.6561
-7 13 13 -9.7292 0.4926
-7 13 14 -4.3912 0.7706
-7 13 15 -6.4078 -1.6536
-6 0 2 42.3954 -10.4967
-6 0 4 12.7103 -0.7255
-6 0 6 -57.7269 4.2077
-6 0 8 -40.4683 2.6490
-6 0 10 21.8403 -0.2997
-6 0 12 13.6662 -2.4548
-6 0 14 -55.7865 -4.8198
-6 0 16 -84.3824 -7.1180
-6 0 18 -34.9942 -7.8562
-6 0 20 18.2225 -6.7547
-6 0 22 10.5963 -3.6231
-6 0 24 -19.6765 1.1848
-6 0 26 -20.1017 4.2163
-6 0 28 -10.0453 4.4639
-6 0 30 -12.9210 6.7442
-6 0 32 -11.4211 10.7609
-6 2 1 -66.3158 5.0807
-6 2 2 19.2695 3.9762
-6 2 3 -13.8471 5.4021
-6 2 4 2.8902 2.3070
-6 2 5 86.6162 3.3694
-6 2 6 6.5340 -0.4390
-6 2 7 84.2508 1.5415
-6 2 8 45.0189 -3.5149
-6 2 9 14.4618 2.3045
-6 2 10 75.9424 -3.3367
-6 2 11 -9.3765 3.6007
-6 2 12 61.8841 -0.6965
-6 2 13 4.1449 3.5759
-6 2 14 20.6345 0.2673
-6 2 15 -1.3521 3.1615
-6 2 16 -6.2082 -0.0089
-6 2 17 -12.5966 1.7560
-6 2 18 -3.4930 1.3097
-6 2 19 -3.4099 -0.9427
-6 2 20 9.3380 3.0247
-6 2 21 7.4982 -2.5849
-6 2 22 10.4155 3.1561
-6 2 23 1.5957 -2.9953
-6 2 24 2.0993 2.0258
-6 2 25 -8.6407 -2.6020
-6 2 26 -0.9106 0.3409
-6 2 27 -7.3149 -1.1725
-6 2 28 4.3354 0.3288
-6 2 29 3.1636 -2.9538
-6 2 30 8.2477 3.6419
-6 2 31 9.1508 -7.4345
-6 4 1 -24.1642 -3.0904
-6 4 2 -16.6993 -1.6214
-6 4 3 2.1253 -1.2016
-6 4 4 -7.7481 -0.6694
-6 4 5 42.7403 0.7830
-6 4 6 20.5084 -0.6482
-6 4 7 40.9599 1.7367
-6 4 8 4.3193 -0.6747
-6 4 9 9.5421 1.6899
-6 4 10 -33.6073 0.7957
-6 4 11 -14.6874 1.2188
-6 4 12 -28.9701 2.0418
-6 4 13 -14.6268 -0.0076
-6 4 14 8.1259 1.1860
-6 4 15 3.4010 -0.9092
-6 4 16 20.3318 0.3604
-6 4 17 13.4931 0.2578
-6 4 18 -3.0205 0.2457
-6 4 19 6.4251 2.1328
-6 4 20 -21.2965 -1.4180
-6 4 21 2.8560 1.9799
-6 4 22 -11.0597 -2.6745
-6 4 23 7.7902 0.2766
-6 4 24 4.2228 -0.9189
-6 4 25 4.5905 0.3484
-6 4 26 2.0155 0.6639
-6 4 27 -3.3784 1.6409
-6 4 28 -4.8715 0.2407
-6 4 29 -1.4087 -1.1247
-6 4 30 -3.0393 0.1067
-6 6 1 26.8778 0.1088
-6 6 2 -26.6686 0.7129
-6 6 3 11.6150 0.1567
-6 6 4 -4.9864 -0.4068
-6 6 5 -17.5491 0.2105
-6 6 6 20.2341 -0.6467
-6 6 7 -8.8281 0.4455
-6 6 8 14.4192 -0.2137
-6 6 9 12.3256 0.9993
-6 6 10 -10.7845 0.1003
-6 6 11 -2.6326 0.8803
-6 6 12 -13.2972 0.3999
-6 6 13 -24.4897 0.0529
-6 6 14 7.1316 0.5144
-6 6 15 -9.7467 0.5769
-6 6 16 17.4022 1.2672
-6 6 17 10.9048 1.5917
-6 6 18 8.2030 2.7297
-6 6 19 -0.8771 0.7212
-6 6 20 -4.8555 2.2143
-6 6 21 -18.1797 0.6209
-6 6 22 -8.9857 0.4579
-6 6 23 -11.6249 3.9122
-6 6 24 -2.4362 0.0036
-6 6 25 -4.4800 7.6604
-6 6 26 5.7498 -2.4748
-6 6 27 -14.6480 9.5767
-6 6 28 7.2223 -7.6821
-6 6 29 -18.5380 9.9618
-6 8 1 13.3502 -1.2726
-6 8 2 21.0461 1.0169
-6 8 3 -4.5931 0.1363
-6 8 4 17.5549 1.3888
-6 8 5 -28.2388 0.7984
-6 8 6 -15.8982 0.8323
-6 8 7 -26.5690 -0.4514
-6 8 8 -33.4310 0.4068
-6 8 9 -8.7945 -1.7297
-6 8 10 -18.9068 -0.3382
-6 8 11 -0.7365 -2.3853
-6 8 12 -4.6814 0.4933
-6 8 13 -6.6797 -2.4791
-6 8 14 -7.9205 1.4708
-6 8 15 -10.4957 -0.8500
-6 8 16 -1.9769 -0.1026
-6 8 17 -1.9441 0.6551
-6 8 18 17.8320 -1.7513
-6 8 19 5.9395 -0.3477
-6 8 20 8.1289 -2.6169
-6 8 21 1.9717 -0.7723
-6 8 22 -33.3589 -3.5897
-6 8 23 -1.1277 1.1204
-6 8 24 -45.6611 -1.2021
-6 8 25 3.8027 1.0412
-6 8 26 -15.2467 4.2253
-6 8 27 5.6434 -1.5700
-6 10 1 2.4907 0.4482
-6 10 2 13.7934 0.5354
-6 10 3 13.3242 -1.7739
-6 10 4 14.1081 -1.4272
-6 10 5 7.8982 -0.9263
-6 10 6 4.7151 -1.5713
-6 10 7 -7.1127 -0.4162
-6 10 8 2.0312 0.5502
-6 10 9 -3.3661 -0.5857
-6 10 10 10.6084 1.4673
-6 10 11 15.9867 -0.4187
-6 10 12 14.4366 0.3749
-6 10 13 20.1183 0.0527
-6 10 14 0.6232 -0.8986
-6 10 15 2.9638 0.5976
-6 10 16 -14.3474 0.4581
-6 10 17 -10.0903 0.4767
-6 10 18 -8.9395 4.1061
-6 10 19 -4.7848 -1.2807
-6 10 20 2.0950 5.1412
-6 10 21 6.5204 -5.3212
-6 10 22 -1.8160 3.4694
-6 10 23 9.4757 -9.3175
-6 10 24 -6.5907 3.2041
-6 12 1 -0.3631 -1.8930
-6 12 2 -3.2925 2.7317
-6 12 3 -2.3181 2.7930
-6 12 4 -9.5961 0.6261
-6 12 5 -6.2509 2.5537
-6 12 6 -3.3104 -1.6456
-6 12 7 -8.2858 -1.2688
-6 12 8 3.0147 -3.0783
-6 12 9 -3.8122 -2.4156
-6 12 10 -0.0099 -3.7216
-6 12 11 8.3843 -2.3200
-6 12 12 -1.8198 -1.7065
-6 12 13 17.1518 -0.5358
-6 12 14 -1.0227 2.1749
-6 12 15 9.6111 5.3454
-6 12 16 -5.2651 4.6834
-6 12 17 -4.8592 9.2753
-6 12 18 -5.4559 2.7553
-6 12 19 -5.8375 6.3092
-6 14 1 9.5320 -1.1255
-6 14 2 -8.9613 -0.8910
-6 14 3 1.5951 4.1013
-6 14 4 -11.7232 -3.7994
-6 14 5 -4.2724 2.3494
-6 14 6 -2.6881 -2.4198
-6 14 7 -2.4820 -3.1794
-6 14 8 1.3486 6.5976
-6 14 9 1.0887 -4.4874
-6 14 10 -0.6918 11.6674
-5 1 1 65.5090 -12.7763
-5 1 2 68.7633 -3.9391
-5 1 3 33.7112 -8.2090
-5 1 4 131.5084 -7.3728
-5 1 5 29.6375 -2.6001
-5 1 6 76.9246 -4.6583
-5 1 7 42.0038 -0.4301
-5 1 8 -34.1457 -0.8528
-5 1 9 12.6870 -0.7685
-5 1 10 -58.0654 -0.0742
-5 1 11 -33.2348 -1.7790
-5 1 12 4.5907 -0.2316
-5 1 13 -40.1741 -4.0330
-5 1 14 45.0200 0.6788
-5 1 15 -23.1039 -5.1182
-5 1 16 16.8322 2.0091
-5 1 17 -17.4463 -2.3219
-5 1 18 -23.8083 3.9168
-5 1 19 -12.7643 0.9761
-5 1 20 -17.8971 5.5844
-5 1 21 5.2719 2.9862
-5 1 22 12.4827 4.4079
-5 1 23 19.5735 5.7151
-5 1 24 16.6914 2.1574
-5 1 25 15.9580 6.1011
-5 1 26 1.6962 3.7236
-5 1 27 2.7213 2.7187
-5 1 28 -2.1332 9.0203
-5 1 29 -7.3846 0.9649
-5 1 30 -0.2415 14.0284
-5 1 31 -7.8701 0.5283
-5 3 1 51.1196 0.7035
-5 3 2 -23.0867 -1.0326
-5 3 3 -47.6848 -0.1891
-5 3 4 -29.5225 -0.8679
-5 3 5 -56.8533 -0.1180
-5 3 6 -12.4073 0.9774
-5 3 7 9.9843 -0.6259
-5 3 8 18.0237 1.3240
-5 3 9 42.3090 -1.6741
-5 3 10 20.9860 0.0198
-5 3 11 26.4119 -1.0044
-5 3 12 -1.9555 0.0892
-5 3 13 14.2884 1.2027
-5 3 14 -16.4983 0.9112
-5 3 15 12.2045 1.9497
-5 3 16 -13.7627 -0.0607
-5 3 17 0.3405 0.8497
-5 3 18 -11.6415 -1.3999
-5 3 19 -13.4958 0.3019
-5 3 20 -16.9873 -1.4700
-5 3 21 -10.9546 1.1356
-5 3 22 -16.2440 -1.2136
-5 3 23 2.6683 1.0015
-5 3 24 -3.4270 -0.4122
-5 3 25 7.2496 -1.0705
-5 3 26 5.1577 0.9067
-5 3 27 -1.6227 0.6309
-5 3 28 -0.1585 1.2301
-5 3 29 -9.3830 9.0674
-5 3 30 -5.2612 1.2203
-5 5 1 -5.6866 -1.8961
-5 5 2 10.4577 -0.7404
-5 5 3 -10.2064 -1.2230
-5 5 4 -39.0667 0.8113
-5 5 5 -29.7896 -0.8664
-5 5 6 -34.9485 1.7999
-5 5 7 -48.0749 -0.9051
-5 5 8 9.9670 0.6307
-5 5 9 -33.8138 -1.1113
-5 5 10 15.5205 -1.3349
-5 5 11 -6.6329 -0.1976
-5 5 12 -21.2457 -1.4249
-5 5 13 -12.3996 1.3047
-5 5 14 -31.9576 -0.5197
-5 5 15 -31.7241 0.9649
-5 5 16 0.4223 -0.4812
-5 5 17 -20.8361 -0.4688
-5 5 18 26.9857 0.3161
-5 5 19 -2.0047 -1.1062
-5 5 20 18.9718 1.5323
-5 5 21 -8.6480 -1.5849
-5 5 22 0.2716 0.3862
-5 5 23 -13.2712 -1.6080
-5 5 24 -0.3183 -0.3228
-5 5 25 8.7079 -0.0316
-5 5 26 12.8807 2.4582
-5 5 27 26.4212 1.5940
-5 5 28 19.6095 4.4013
-5 5 29 15.8804 0.7596
-5 7 1 -17.7200 1.7943
-5 7 2 -10.2674 0.1669
-5 7 3 20.4730 1.6517
-5 7 4 0.7952 -0.7084
-5 7 5 27.3532 2.0601
-5 7 6 11.3795 -1.3131
-5 7 7 8.2186 1.4738
-5 7 8 14.2843 -0.2441
-5 7 9 4.0713 -0.1868
-5 7 10 12.8577 1.2013
-5 7 11 11.6551 -0.8181
-5 7 12 8.4670 0.9877
-5 7 13 3.6715 -0.9511
-5 7 14 -0.5605 0.0345
-5 7 15 -12.5953 -1.1094
-5 7 16 -13.3075 -1.3330
-5 7 17 -9.7235 0.7378
-5 7 18 -17.2728 -1.6544
-5 7 19 8.6612 2.3441
-5 7 20 -5.8209 0.5114
-5 7 21 13.6111 -0.1996
-5 7 22 1.1840 1.1397
-5 7 23 2.6683 -3.5236
-5 7 24 -7.7041 -0.2365
-5 7 25 -1.7317 -4.7637
-5 7 26 -10.7521 3.0731
-5 7 27 0.7945 -7.6278
-5 7 28 -0.4375 9.6841
-5 9 1 -17.7985 0.7964
-5 9 2 -14.3597 0.3820
-5 9 3 -11.0424 -0.1656
-5 9 4 -1.9370 2.3359
-5 9 5 2.2696 -0.2278
-5 9 6 4.0726 1.1330
-5 9 7 1.1634 1.0533
-5 9 8 -10.4187 -0.0928
-5 9 9 -12.9021 2.1224
-5 9 10 -18.4770 -0.2780
-5 9 11 -14.7121 3.0640
-5 9 12 -0.7864 -0.2218
-5 9 13 4.3281 2.8936
-5 9 14 15.6969 0.7360
-5 9 15 21.4998 -0.1497
-5 9 16 3.4848 0.5447
-5 9 17 21.3430 -3.8584
-5 9 18 -11.1381 -1.0540
-5 9 19 11.6863 -3.8366
-5 9 20 0.6454 -0.4597
-5 9 21 -1.0823 0.7553
-5 9 22 10.6139 0.7776
-5 9 23 -12.4675 6.6996
-5 9 24 -3.1391 -0.2916
-5 9 25 -12.2754 10.4574
-5 11 1 -12.3708 1.9141
-5 11 2 13.9526 0.6788
-5 11 3 -1.7036 1.2681
-5 11 4 11.3261 -0.5860
-5 11 5 19.2241 0.5824
-5 11 6 -0.1932 -1.5144
-5 11 7 24.1955 -0.0966
-5 11 8 -7.0262 -0.4022
-5 11 9 4.0395 -0.0192
-5 11 10 -8.4932 1.7330
-5 11 11 -14.8586 0.9187
-5 11 12 -6.7902 2.4636
-5 11 13 -10.4833 -0.2743
-5 11 14 0.8449 -0.3538
-5 11 15 4.7565 -3.0760
-5 11 16 3.3478 -5.2500
-5 11 17 6.0623 -3.4285
-5 11 18 -5.8535 -5.7719
-5 11 19 -6.5560 0.5575
-5 11 20 -8.8014 -1.9877
-5 13 1 2.7878 -0.0785
-5 13 2 9.0594 -0.8489
-5 13 3 6.4792 1.9496
-5 13 4 2.3091 2.0150
-5 13 5 4.3825 4.2593
-5 13 6 -2.2342 2.2842
-5 13 7 2.3810 1.0837
-5 13 8 2.5768 2.3469
-5 13 9 2.6170 -1.9879
-5 13 10 5.0185 2.9925
-5 13 11 2.0134 0.0243
-5 13 12 2.9354 2.5940
-5 13 13 5.7245 1.8501
-5 13 14 5.6098 2.3147
-5 13 15 12.4261 1.1204
-4 0 2 -74.0791 5.1716
-4 0 4 -87.8918 9.3236
-4 0 6 39.3821 7.0662
-4 0 8 89.8197 4.2673
-4 0 10 20.6694 3.1315
-4 0 12 -25.7096 2.1743
-4 0 14 13.6697 0.2760
-4 0 16 61.0001 -2.6653
-4 0 18 42.9795 -5.8683
-4 0 20 -7.3484 -7.6731
-4 0 22 -17.1095 -8.0729
-4 0 24 7.0588 -7.6784
-4 0 26 12.7139 -3.7708
-4 0 28 3.5580 3.7115
-4 0 30 5.9194 6.7780
-4 2 1 44.6862 6.3073
-4 2 2 -12.6779 1.3452
-4 2 3 43.3207 3.5055
-4 2 4 9.4761 0.8961
-4 2 5 -42.1905 1.3207
-4 2 6 30.1497 -0.5628
-4 2 7 -81.4475 1.3161
-4 2 8 -1.9297 -0.0706
-4 2 9 -50.8999 2.2110
-4 2 10 -62.4039 0.2619
-4 2 11 -26.5827 2.9843
-4 2 12 -86.4103 -1.1183
-4 2 13 -18.1617 3.4216
-4 2 14 -55.7423 -1.6626
-4 2 15 9.1466 3.2086
-4 2 16 -7.5505 -0.6919
-4 2 17 33.2361 3.2943
-4 2 18 16.6496 -0.0676
-4 2 19 20.0308 3.5628
-4 2 20 12.1122 0.5089
-4 2 21 -5.4469 1.7292
-4 2 22 2.3887 1.8066
-4 2 23 -7.0867 -0.7984
-4 2 24 1.0433 2.6482
-4 2 25 6.1168 -0.7589
-4 2 26 2.7117 1.2985
-4 2 27 10.9030 1.7011
-4 2 28 2.4977 -3.8612
-4 2 29 5.4789 7.7690
-4 2 30 1.2412 -11.2431
-4 2 31 -1.1475 15.7065
-4 4 1 -17.2978 -1.6954
-4 4 2 25.1615 1.2944
-4 4 3 6.7487 -0.9974
-4 4 4 27.8564 1.5168
-4 4 5 1.4962 -0.1185
-4 4 6 -15.5743 0.9136
-4 4 7 -1.6637 1.2110
-4 4 8 -17.9893 0.6336
-4 4 9 1.7290 2.1234
-4 4 10 27.9321 0.0027
-4 4 11 5.8694 0.8791
-4 4 12 45.9261 -0.2689
-4 4 13 8.1808 -0.7153
-4 4 14 15.3645 1.0132
-4 4 15 -0.3708 -0.7673
-4 4 16 -12.2516 1.5921
-4 4 17 -13.1401 -0.8585
-4 4 18 -6.7623 0.2872
-4 4 19 -12.7584 -1.2425
-4 4 20 8.5322 -0.1227
-4 4 21 -4.4709 -0.4105
-4 4 22 5.5746 0.4438
-4 4 23 -1.4458 0.9159
-4 4 24 -9.7961 -0.0268
-4 4 25 0.0026 0.5740
-4 4 26 -17.3559 0.2864
-4 4 27 3.3887 -1.8610
-4 4 28 -14.7334 2.9842
-4 4 29 2.7425 -3.2801
-4 6 1 -2.1411 -0.4938
-4 6 2 7.6545 -1.1336
-4 6 3 -10.6236 0.0721
-4 6 4 -2.2554 -1.2799
-4 6 5 3.0262 -0.1490
-4 6 6 -37.5316 -1.0036
-4 6 7 -5.7383 -0.3999
-4 6 8 -44.8144 -0.3930
-4 6 9 -29.4807 -1.0452
-4 6 10 -7.9592 -0.1791
-4 6 11 -17.1971 -1.5440
-4 6 12 21.7892 -1.0234
-4 6 13 21.7175 -0.1631
-4 6 14 10.1610 -1.4687
-4 6 15 30.2647 0.8480
-4 6 16 -14.3704 -0.9555
-4 6 17 8.7720 -0.5682
-4 6 18 -19.9061 -0.6031
-4 6 19 3.5581 -0.5789
-4 6 20 -10.8335 1.3660
-4 6 21 13.5813 1.6439
-4 6 22 -1.0750 4.9085
-4 6 23 5.3128 1.5321
-4 6 24 3.3616 5.4053
-4 6 25 -10.1889 -0.6359
-4 6 26 1.5243 3.8080
-4 6 27 -2.9496 -2.3338
-4 6 28 -0.0010 4.8125
-4 8 1 -8.0549 1.0305
-4 8 2 6.3458 -0.6806
-4 8 3 -6.3046 0.6214
-4 8 4 -2.5008 -1.6687
-4 8 5 7.3388 -0.8031
-4 8 6 11.2360 -0.9256
-4 8 7 14.4796 -1.0672
-4 8 8 19.6685 -0.3938
-4 8 9 10.6652 -0.4282
-4 8 10 9.7292 0.9119
-4 8 11 4.7469 -0.1057
-4 8 12 1.6365 1.5833
-4 8 13 4.0004 0.1586
-4 8 14 8.3449 1.5079
-4 8 15 3.4707 -0.2029
-4 8 16 11.3438 2.1890
-4 8 17 -6.2626 -0.6301
-4 8 18 -0.7979 0.4732
-4 8 19 -14.5172 1.4877
-4 8 20 2.2753 -3.1161
-4 8 21 -6.3569 4.1952
-4 8 22 36.2906 -3.4022
-4 8 23 4.9801 3.0098
-4 8 24 54.8705 -3.6677
-4 8 25 4.1177 0.3521
-4 10 1 14.2607 -0.0409
-4 10 2 -12.8232 -1.4708
-4 10 3 -5.3888 0.8963
-4 10 4 -18.3768 -1.3283
-4 10 5 -13.4452 -0.8945
-4 10 6 -8.8713 0.0689
-4 10 7 3.8782 -1.8590
-4 10 8 4.1065 1.2591
-4 10 9 14.4336 -1.0061
-4 10 10 7.5658 1.2650
-4 10 11 -1.9061 0.4412
-4 10 12 2.0731 -0.4995
-4 10 13 -20.1007 2.8104
-4 10 14 3.0652 -1.4928
-4 10 15 -16.4463 5.4921
-4 10 16 10.9201 -0.3826
-4 10 17 -1.3016 4.7735
-4 10 18 4.8648 0.6530
-4 10 19 6.2427 -0.9335
-4 10 20 -10.6959 3.0252
-4 10 21 2.6426 -5.5281
-4 10 22 -10.9069 7.4896
-4 10 23 -2.9084 -3.5285
-4 12 1 1.1661 2.7925
-4 12 2 -0.1461 1.5921
-4 12 3 -4.5191 -1.0290
-4 12 4 11.9481 3.5291
-4 12 5 -7.5109 -2.6031
-4 12 6 13.0031 3.2755
-4 12 7 -2.9292 -1.2421
-4 12 8 8.1160 0.8456
-4 12 9 6.3033 -0.0846
-4 12 10 5.6083 -1.2092
-4 12 11 5.7811 1.6267
-4 12 12 -2.5206 -0.9709
-4 12 13 -7.3100 1.6031
-4 12 14 -12.1165 1.4389
-4 12 15 -11.4514 -4.9538
-4 12 16 -5.4672 2.2679
-4 12 17 3.6548 -13.7113
-4 12 18 7.8470 -0.0429
-4 14 1 -6.1641 -2.0888
-4 14 2 -0.6800 -0.4210
-4 14 3 -0.3884 -3.0339
-4 14 4 3.4943 0.4401
-4 14 5 6.4252 -0.7421
-4 14 6 -0.5119 2.0017
-4 14 7 5.5286 3.1921
-4 14 8 -3.1990 -0.2569
-4 14 9 2.9130 5.2879
-4 14 10 -0.9458 -4.1419
-3 1 1 -61.0913 -9.8743
-3 1 2 13.6846 -9.3661
-3 1 3 -53.3038 -2.8166
-3 1 4 -110.2254 -6.1268
-3 1 5 -38.9101 0.9481
-3 1 6 -132.5615 -2.6296
-3 1 7 -31.6109 0.8168
-3 1 8 -20.0467 -2.3147
-3 1 9 -2.9585 -1.8394
-3 1 10 63.0502 -3.5858
-3 1 11 28.0016 -4.2371
-3 1 12 36.3246 -4.1618
-3 1 13 20.3485 -3.7118
-3 1 14 -20.5838 -2.7578
-3 1 15 -5.3250 -2.5242
-3 1 16 -25.6609 -0.0202
-3 1 17 -5.5100 -3.9153
-3 1 18 7.0209 1.1947
-3 1 19 9.0598 -4.9038
-3 1 20 17.3885 0.6916
-3 1 21 6.1974 -2.9221
-3 1 22 -3.5224 1.6119
-3 1 23 -7.8443 -0.0533
-3 1 24 -14.6882 3.1089
-3 1 25 -12.0348 4.2353
-3 1 26 -7.0043 0.5675
-3 1 27 -6.9984 9.0113
-3 1 28 -3.9193 -6.4979
-3 1 29 -0.6037 8.2957
-3 1 30 -4.3694 -14.0683
-3 1 31 4.2433 3.7585
-3 3 1 -78.9596 4.0206
-3 3 2 -10.3122 4.2955
-3 3 3 -16.3883 2.6359
-3 3 4 -8.1051 3.2176
-3 3 5 14.1546 0.6758
-3 3 6 -15.1990 0.8900
-3 3 7 -10.4836 -1.0002
-3 3 8 -33.8776 -0.1613
-3 3 9 -26.1087 -1.3060
-3 3 10 -29.7680 1.4158
-3 3 11 -20.5194 -1.3567
-3 3 12 -2.9692 2.8684
-3 3 13 -24.0993 -2.5919
-3 3 14 11.1131 2.4145
-3 3 15 -26.8704 -3.0500
-3 3 16 3.8524 1.1105
-3 3 17 -4.5542 -1.1262
-3 3 18 -1.5465 -0.7513
-3 3 19 23.6911 1.2729
-3 3 20 6.6634 -2.9259
-3 3 21 23.6956 2.0249
-3 3 22 15.5347 -4.2074
-3 3 23 1.8641 1.8735
-3 3 24 12.1640 -4.1619
-3 3 25 -10.1863 3.0364
-3 3 26 2.9203 -2.1598
-3 3 27 -4.8217 3.2193
-3 3 28 0.0600 1.5060
-3 3 29 3.0282 -2.6949
-3 3 30 1.6988 3.7536
-3 5 1 30.2681 0.5291
-3 5 2 -16.6808 0.7356
-3 5 3 16.7551 0.4651
-3 5 4 58.6457 2.5711
-3 5 5 22.4090 0.3765
-3 5 6 83.7990 2.9657
-3 5 7 44.6487 -0.2264
-3 5 8 27.1228 2.3994
-3 5 9 45.1371 -0.0369
-3 5 10 -21.0322 1.9178
-3 5 11 16.0037 0.1829
-3 5 12 -6.1240 0.6180
-3 5 13 3.3060 -1.0845
-3 5 14 20.8377 -1.2604
-3 5 15 18.2011 -2.0182
-3 5 16 11.7915 -1.6591
-3 5 17 19.5855 -2.4334
-3 5 18 -10.0446 -1.3690
-3 5 19 4.2052 -3.6365
-3 5 20 -9.9924 -1.6242
-3 5 21 5.5470 -3.2684
-3 5 22 5.6951 -0.7664
-3 5 23 14.1408 -1.0990
-3 5 24 15.4743 0.0645
-3 5 25 -2.0614 -0.4298
-3 5 26 12.3466 -2.3944
-3 5 27 -28.4007 -0.1320
-3 5 28 0.8537 -6.3822
-3 7 1 -3.9189 -0.2699
-3 7 2 4.8064 1.7142
-3 7 3 -18.6467 0.1406
-3 7 4 5.4856 0.9710
-3 7 5 -16.9235 0.3088
-3 7 6 6.9093 0.6152
-3 7 7 4.2290 0.8117
-3 7 8 3.3831 0.5841
-3 7 9 12.5550 1.8651
-3 7 10 -6.9205 0.5612
-3 7 11 1.3644 1.0544
-3 7 12 -7.6075 0.8938
-3 7 13 -5.3036 -0.9638
-3 7 14 6.4747 0.3111
-3 7 15 1.8641 -0.4321
-3 7 16 20.3789 0.0724
-3 7 17 3.0269 1.2580
-3 7 18 19.2644 0.5380
-3 7 19 -11.0656 1.2625
-3 7 20 1.2648 -1.0542
-3 7 21 -16.9435 1.3272
-3 7 22 -14.0009 -1.1786
-3 7 23 -3.1182 0.7628
-3 7 24 -5.9071 3.4952
-3 7 25 7.0478 -2.4496
-3 7 26 9.3067 4.8133
-3 7 27 3.0042 -3.3870
-3 9 1 20.3303 -0.2588
-3 9 2 -0.1347 -1.0254
-3 9 3 20.5716 -0.1961
-3 9 4 -6.3751 -0.1331
-3 9 5 -2.4184 -0.2792
-3 9 6 -10.2055 1.0268
-3 9 7 -22.7367 -1.1386
-3 9 8 2.3640 0.5118
-3 9 9 -16.5087 -0.7182
-3 9 10 13.5543 -0.2877
-3 9 11 1.7118 0.9200
-3 9 12 4.3990 0.2978
-3 9 13 6.2217 1.5017
-3 9 14 -10.5176 -0.1940
-3 9 15 -0.0110 1.1192
-3 9 16 -3.7022 -0.0832
-3 9 17 -4.0267 0.8363
-3 9 18 11.4277 2.7525
-3 9 19 -4.8835 -1.0251
-3 9 20 1.4738 3.2783
-3 9 21 -0.8776 -5.6420
-3 9 22 -16.8278 1.1622
-3 9 23 6.5904 -9.8277
-3 9 24 -10.3242 2.0190
-3 9 25 6.7965 -10.3883
-3 11 1 5.5055 -4.0184
-3 11 2 -2.0878 -0.3159
-3 11 3 11.8327 -3.0684
-3 11 4 -8.3484 0.4041
-3 11 5 -3.2779 -1.0723
-3 11 6 -7.0596 0.0689
-3 11 7 -19.5582 1.3173
-3 11 8 -6.8850 -1.0929
-3 11 9 -10.1402 1.7148
-3 11 10 -5.0687 -1.9403
-3 11 11 14.1806 -1.9336
-3 11 12 0.8266 -2.5163
-3 11 13 21.3305 -5.6955
-3 11 14 -0.6681 -1.2317
-3 11 15 1.5236 -3.5616
-3 11 16 -5.2692 3.8887
-3 11 17 -20.9858 5.8975
-3 11 18 1.1121 6.9626
-3 11 19 -20.1036 15.6327
-3 11 20 8.0682 2.3144
-3 11 21 -3.7011 15.4806
-3 13 1 9.5536 1.6118
-3 13 2 -7.9024 -0.4127
-3 13 3 6.4008 -0.9484
-3 13 4 -6.5582 -3.4467
-3 13 5 3.4009 -2.3528
-3 13 6 -1.4153 -4.4395
-3 13 7 -3.3960 -0.6618
-3 13 8 -0.4773 -3.2857
-3 13 9 -12.2130 -0.0848
-3 13 10 3.0862 -1.0846
-3 13 11 -9.0445 -1.5182
-3 13 12 9.8849 0.4645
-3 13 13 -1.4829 0.2935
-3 13 14 7.3551 -0.1453
-2 0 2 -77.8770 20.8632
-2 0 4 48.6618 8.9619
-2 0 6 -30.4470 3.2498
-2 0 8 -111.5978 4.6721
-2 0 10 -55.8321 7.6192
-2 0 12 31.1946 7.6154
-2 0 14 34.8606 5.2441
-2 0 16 -16.8005 3.3473
-2 0 18 -40.0010 1.7457
-2 0 20 -18.4622 -1.9427
-2 0 22 -3.2652 -6.2121
-2 0 24 -11.5595 -7.6751
-2 0 26 -9.9953 -8.4421
-2 0 28 2.5460 -10.7999
-2 0 30 0.7223 -9.4870
-2 2 1 24.8309 -2.6294
-2 2 2 58.3030 -5.7261
-2 2 3 -1.2983 -4.3981
-2 2 4 68.9600 -3.9390
-2 2 5 23.6746 -3.5465
-2 2 6 26.5559 -1.9249
-2 2 7 32.4088 -2.1347
-2 2 8 -1.8479 -0.7412
-2 2 9 16.0426 -2.1623
-2 2 10 17.2158 -0.3069
-2 2 11 26.3678 -2.3796
-2 2 12 46.3634 -0.1307
-2 2 13 49.9372 -0.3561
-2 2 14 46.7005 -0.6858
-2 2 15 31.4159 3.4131
-2 2 16 21.4302 -0.9592
-2 2 17 -13.4595 5.1349
-2 2 18 -0.2680 0.6241
-2 2 19 -25.7146 3.3395
-2 2 20 -1.6827 3.0576
-2 2 21 -6.9163 1.5630
-2 2 22 5.9866 4.0114
-2 2 23 -0.3479 1.2111
-2 2 24 8.5097 1.6774
-2 2 25 -8.9754 -0.3425
-2 2 26 6.4727 -3.4939
-2 2 27 -9.7303 -3.5235
-2 2 28 3.6797 -7.0963
-2 2 29 -3.7117 -8.6882
-2 2 30 1.4978 -5.9766
-2 4 1 -8.9444 0.2611
-2 4 2 -19.8310 0.3323
-2 4 3 -18.9585 -0.0080
-2 4 4 -52.8171 -1.4890
-2 4 5 -15.0910 -0.4475
-2 4 6 -9.2805 -1.1499
-2 4 7 -10.5175 -0.5349
-2 4 8 24.7326 -0.3104
-2 4 9 1.3062 -0.8828
-2 4 10 -1.5521 -0.4249
-2 4 11 15.5582 0.0258
-2 4 12 -29.1796 -1.2402
-2 4 13 10.6968 1.3938
-2 4 14 -13.7300 -1.9177
-2 4 15 -6.6555 0.7646
-2 4 16 11.9715 -1.0403
-2 4 17 -14.0679 -0.6686
-2 4 18 10.8494 1.0944
-2 4 19 -9.2624 -1.5809
-2 4 20 -7.3384 1.8077
-2 4 21 -1.5040 -2.1847
-2 4 22 -16.2307 0.7741
-2 4 23 2.6850 -2.0070
-2 4 24 -9.7305 0.0425
-2 4 25 0.2802 -2.1437
-2 4 26 2.0550 0.1270
-2 4 27 -4.8859 -2.7981
-2 4 28 9.8155 0.6672
-2 4 29 -6.1985 -1.1588
-2 6 1 11.9067 -1.0185
-2 6 2 -3.5770 -3.1176
-2 6 3 15.4717 -0.7340
-2 6 4 -33.8789 -3.3232
-2 6 5 -5.8764 0.6925
-2 6 6 -9.2782 -2.6850
-2 6 7 -13.2096 0.9005
-2 6 8 27.4126 -2.0885
-2 6 9 5.1358 0.0219
-2 6 10 20.3943 -1.6085
-2 6 11 9.8639 -0.0152
-2 6 12 -13.2188 -0.0912
-2 6 13 -12.2175 -0.5125
-2 6 14 -22.2277 0.9756
-2 6 15 -20.2242 -1.2886
-2 6 16 -5.1506 -0.1097
-2 6 17 1.1990 0.2662
-2 6 18 8.8991 -0.6442
-2 6 19 12.5313 1.1622
-2 6 20 13.4864 0.1358
-2 6 21 -1.8439 -1.1672
-2 6 22 10.3306 0.0677
-2 6 23 -8.0857 -2.0186
-2 6 24 -1.7088 0.6567
-2 6 25 3.8672 -0.6665
-2 6 26 -8.4469 2.0386
-2 6 27 5.7932 -1.1180
-2 8 1 6.2646 0.3766
-2 8 2 -6.6316 1.8605
-2 8 3 10.0114 -1.6859
-2 8 4 10.4765 1.8873
-2 8 5 10.1160 -1.7810
-2 8 6 5.2828 0.0196
-2 8 7 8.9058 -0.2055
-2 8 8 -0.2819 -1.4341
-2 8 9 5.4347 1.2504
-2 8 10 2.3279 -2.9483
-2 8 11 0.1524 1.9767
-2 8 12 -4.4144 -2.6171
-2 8 13 -6.7639 1.5286
-2 8 14 -23.3224 -0.2204
-2 8 15 -11.6851 0.4215
-2 8 16 -30.5907 0.3803
-2 8 17 -4.7159 -0.0532
-2 8 18 -10.6146 0.8753
-2 8 19 7.3384 -0.6429
-2 8 20 9.3219 1.6579
-2 8 21 6.7213 -1.6565
-2 8 22 -5.1527 -3.4494
-2 8 23 -0.2578 -0.7924
-2 8 24 -29.5486 -10.5158
-2 10 1 -28.7702 -0.6647
-2 10 2 -0.1431 -1.7829
-2 10 3 -17.5384 -0.4589
-2 10 4 4.9849 -1.8084
-2 10 5 7.8066 1.7014
-2 10 6 0.4710 0.3732
-2 10 7 9.6818 1.8032
-2 10 8 -7.5490 2.2706
-2 10 9 -4.3247 -0.7447
-2 10 10 -8.6394 2.5045
-2 10 11 -6.6073 -2.0588
-2 10 12 1.6812 3.0762
-2 10 13 1.9888 -0.8795
-2 10 14 9.5891 1.9806
-2 10 15 6.6098 -0.9372
-2 10 16 4.5848 -3.8327
-2 10 17 2.9919 -2.7158
-2 10 18 3.4712 -9.3454
-2 10 19 -6.2209 -0.5647
-2 10 20 11.6225 -10.5169
-2 10 21 -12.3440 4.8930
-2 10 22 8.2234 -9.9083
-2 12 1 -4.9946 1.3240
-2 12 2 4.4688 1.0885
-2 12 3 -0.5327 1.9394
-2 12 4 3.1940 0.9382
-2 12 5 8.0467 0.9053
-2 12 6 2.2484 -0.1814
-2 12 7 11.2285 0.1151
-2 12 8 0.2381 -1.7715
-2 12 9 -1.1536 1.0589
-2 12 10 -7.3044 -2.4977
-2 12 11 -15.6837 0.1440
-2 12 12 -8.2161 -2.0584
-2 12 13 -8.0299 -2.3404
-2 12 14 0.6196 -2.2459
-2 12 15 11.9947 -1.0646
-2 12 16 -0.0038 -1.1600
-2 12 17 12.2347 3.8258
-2 14 1 -3.0052 -3.9011
-2 14 2 1.8587 -0.3111
-2 14 3 -4.2924 -2.6673
-2 14 4 -2.3239 -2.1117
-2 14 5 -4.4951 -0.9872
-2 14 6 -2.1295 -2.1301
-2 14 7 3.7177 1.5825
-2 14 8 -3.0865 0.0341
-2 14 9 7.7162 2.5845
-2 14 10 -5.4230 2.8484
-1 1 1 -63.3780 13.3493
-1 1 2 -86.6081 0.8053
-1 1 3 -40.4545 11.7369
-1 1 4 30.6189 3.5294
-1 1 5 2.2560 7.6916
-1 1 6 134.9539 1.4546
-1 1 7 41.0638 4.4057
-1 1 8 83.5054 -2.2894
-1 1 9 33.6499 3.5993
-1 1 10 -21.7749 -3.7870
-1 1 11 -1.9586 3.1377
-1 1 12 -51.4157 -3.0457
-1 1 13 -12.3319 0.2707
-1 1 14 -18.3541 -3.4873
-1 1 15 1.9865 -3.2616
-1 1 16 5.6555 -5.2514
-1 1 17 -0.3990 -4.4398
-1 1 18 -0.9381 -3.8048
-1 1 19 -19.1231 -4.7435
-1 1 20 -7.1227 1.0509
-1 1 21 -18.4791 -5.6110
-1 1 22 3.8326 3.5548
-1 1 23 2.1856 -5.4970
-1 1 24 9.2018 2.1946
-1 1 25 13.9674 -5.6141
-1 1 26 0.6391 1.2398
-1 1 27 10.6185 -6.1560
-1 1 28 -1.5613 2.7905
-1 1 29 3.4769 -2.4757
-1 1 30 3.6815 5.7455
-1 3 1 95.8323 -0.3274
-1 3 2 16.4996 2.6904
-1 3 3 64.9066 0.5226
-1 3 4 -8.2352 2.3083
-1 3 5 43.7810 0.4555
-1 3 10 26.6335 0.1497
-1 3 11 -26.3499 1.3967
-1 3 12 16.5692 0.3285
-1 3 13 -13.9347 0.3883
-1 3 14 5.6855 1.3636
-1 3 15 25.0571 -0.6251
-1 3 16 9.9379 2.1219
-1 3 17 31.6033 -1.5035
-1 3 18 11.6447 1.7498
-1 3 19 2.3366 -1.4253
-1 3 20 -1.7021 -0.1002
-1 3 21 -13.5052 -0.8662
-1 3 22 -17.0422 -2.0119
-1 3 23 0.3735 -1.3929
-1 3 24 -18.0498 -1.6869
-1 3 25 12.6107 -4.9755
-1 3 26 -7.3021 -0.2107
-1 3 27 9.0769 -11.5679
-1 3 28 0.8298 0.5101
-1 3 29 4.6136 -14.4337
-1 5 1 -21.7437 2.6402
-1 5 2 43.0225 0.1739
-1 5 3 0.4223 2.5862
-1 5 4 3.6252 -1.0260
-1 5 5 10.1771 0.9190
-1 5 6 -42.7749 -1.3859
-1 5 7 -9.0085 0.0673
-1 5 8 -20.8314 0.2742
-1 5 9 -29.5354 -0.1898
-1 5 10 20.0112 1.7244
-1 5 11 -19.2466 -0.4101
-1 5 12 10.1364 1.4705
-1 5 13 -0.2547 0.6215
-1 5 14 -25.6040 0.5385
-1 5 15 -1.6938 1.3693
-1 5 16 -29.6205 -0.7731
-1 5 17 -7.5473 0.9976
-1 5 18 -5.0714 -2.1934
-1 5 19 -5.8412 0.8600
-1 5 20 12.5986 -2.7823
-1 5 21 -13.6991 -1.0817
-1 5 22 14.3073 -3.2262
-1 5 23 -24.6840 -3.8982
-1 5 24 4.5752 -3.8137
-1 5 25 -10.2818 -1.7770
-1 5 26 -11.7745 -3.4350
-1 5 27 20.6241 2.4641
-1 7 1 -13.6889 -1.8577
-1 7 2 -1.6216 -1.0061
-1 7 3 -8.0954 -1.4867
-1 7 4 -9.1399 0.8612
-1 7 5 -7.4344 -0.6822
-1 7 6 -25.7760 1.4514
-1 7 7 -15.3434 -0.3070
-1 7 8 -34.1207 0.6528
-1 7 9 -13.3408 -1.5351
-1 7 10 -13.5791 -0.2002
-1 7 11 0.7294 -2.2139
-1 7 12 13.3073 -0.8888
-1 7 13 7.9122 -0.4832
-1 7 14 16.6486 0.3777
-1 7 15 -2.2607 0.8214
-1 7 16 1.4235 1.8553
-1 7 17 -12.1678 0.7551
-1 7 18 -12.6794 0.9295
-1 7 19 -3.8381 1.8114
-1 7 20 -11.0246 0.9697
-1 7 21 5.3746 3.0388
-1 7 22 3.1485 1.1332
-1 7 23 -5.1170 3.6708
-1 7 24 2.8996 -3.4971
-1 7 25 -18.6555 5.9650
-1 7 26 -16.3832 -7.4455
-1 9 1 3.9217 0.3004
-1 9 2 4.9032 1.6144
-1 9 3 -8.4399 0.8350
-1 9 4 13.6082 0.4057
-1 9 5 -5.4468 -0.1347
-1 9 6 17.6722 -1.6860
-1 9 7 9.1294 -0.9117
-1 9 8 3.4956 -1.1365
-1 9 9 10.6884 -1.0610
-1 9 10 -12.1529 -0.0783
-1 9 11 -2.4842 -1.2517
-1 9 12 -9.2039 -2.1621
-1 9 13 -10.4808 0.0116
-1 9 14 4.0641 -2.9382
-1 9 15 -7.0533 3.1496
-1 9 16 0.5958 -0.7784
-1 9 17 3.0183 4.0927
-1 9 18 -15.6633 0.4834
-1 9 19 14.6796 1.3409
-1 9 20 -8.6636 3.7956
-1 9 21 16.0029 -0.3338
-1 9 22 17.3937 10.0207
-1 9 23 5.7443 1.1505
-1 9 24 21.2303 10.8813
-1 11 1 1.8677 -1.1629
-1 11 2 -4.0465 -0.7687
-1 11 3 -17.2808 -1.7782
-1 11 4 -2.3712 -1.3957
-1 11 5 -15.3898 -0.3386
-1 11 6 -2.2909 -0.9918
-1 11 7 6.4894 0.9618
-1 11 8 1.4988 0.3802
-1 11 9 19.3733 0.8847
-1 11 10 3.6511 1.0185
-1 11 11 9.4275 0.4336
-1 11 12 -3.0328 1.8339
-1 11 13 -8.3167 0.0355
-1 11 14 -7.1849 3.3574
-1 11 15 -8.7946 -0.8961
-1 11 16 -5.0344 1.2316
-1 11 17 11.9281 -5.9137
-1 11 18 -7.4457 -4.5552
-1 11 19 26.0099 -15.1330
-1 11 20 -8.8882 -6.5885
-1 13 1 0.8549 1.0570
-1 13 2 0.8899 1.5742
-1 13 3 5.3419 4.1643
-1 13 4 -1.5679 -0.0326
-1 13 5 1.1057 2.4733
-1 13 6 -3.0660 -0.3303
-1 13 7 -0.4784 -3.4613
-1 13 8 0.9583 0.5476
-1 13 9 10.4797 -4.8357
-1 13 10 1.6017 0.1883
-1 13 11 11.4745 1.3961
-1 13 12 -4.5795 -1.8122
-1 13 13 -4.0977 7.8644
-1 13 14 -4.0610 -2.8382
0 0 2 272.1387 -8.4139
0 0 4 40.1637 -8.6011
0 0 6 -6.9556 -1.4834
0 0 8 55.7919 4.8848
0 0 10 54.1654 6.1793
0 0 12 3.4778 6.0158
0 0 14 -7.2780 7.4114
0 0 16 22.8046 7.6664
0 0 18 37.8630 5.6338
0 0 20 19.0711 4.1355
0 0 22 2.6062 2.2558
0 0 24 7.9951 -2.1456
0 0 26 8.5004 -3.4001
0 0 28 -4.2117 3.0437
0 0 30 -7.1195 8.9383
0 2 0 -44.0555 -1.4262
0 2 1 17.6119 -10.3171
0 2 2 -66.7593 -2.0512
0 2 3 18.9737 -7.9842
0 2 4 -86.0480 -1.3487
0 2 5 -10.2254 -5.1054
0 2 6 -49.9966 -0.1742
0 2 7 -5.3632 -3.7133
0 2 8 2.9248 -0.2582
0 2 9 21.5090 -2.5024
0 2 10 15.8547 -1.6836
0 2 11 3.6821 -1.0099
0 2 12 -8.8735 -2.1538
0 2 13 -47.0671 -0.9653
0 2 14 -35.1517 -0.3284
0 2 15 -53.9987 -2.0297
0 2 16 -39.5516 1.2634
0 2 17 -6.4946 -0.9112
0 2 18 -25.7124 0.4042
0 2 19 26.2113 3.4633
0 2 20 -10.6426 -1.3198
0 2 21 14.1703 6.7160
0 2 22 -2.2545 -1.5998
0 2 23 -0.8281 5.2091
0 2 24 1.2539 1.0483
0 2 25 3.1545 1.4019
0 2 26 1.3297 6.7231
0 2 27 5.4720 -1.3592
0 2 28 0.1776 11.6037
0 2 29 1.8181 -1.5405
0 4 0 -55.2304 -1.4674
0 4 1 -13.9926 0.0746
0 4 2 -11.2207 -1.2087
0 4 3 -43.7540 -1.0484
0 4 4 41.7968 1.0011
0 4 5 -53.0617 -1.3534
0 4 6 15.9833 1.7828
0 4 7 -22.9875 -2.2774
0 4 8 -33.7962 0.3289
0 4 9 8.0482 -1.7706
0 4 10 -29.2926 -0.7628
0 4 11 6.0303 -0.0879
0 4 12 3.1863 -0.1548
0 4 13 -8.2406 1.3343
0 4 14 8.2616 0.7752
0 4 15 -9.7137 2.7363
0 4 16 -6.3472 0.6848
0 4 17 -2.4698 3.1210
0 4 18 -7.2591 0.3274
0 4 19 0.8800 2.3834
0 4 20 5.1467 0.6665
0 4 21 -3.5514 1.0177
0 4 22 11.5823 0.4769
0 4 23 -7.6301 -1.9655
0 4 24 7.4346 -0.8049
0 4 25 -2.8613 -2.1609
0 4 26 -1.9870 -1.7996
0 4 27 5.2045 5.2504
0 4 28 -10.3144 -2.8730
0 6 0 -33.0575 1.2052
0 6 1 -1.4431 0.8351
0 6 2 -8.3324 1.4474
0 6 3 7.9508 1.2105
0 6 4 30.9085 0.8723
0 6 5 29.4579 0.8052
0 6 6 28.9733 -0.2026
0 6 7 31.5894 0.6882
0 6 8 -9.3161 -0.8075
0 6 9 3.8872 1.2297
0 6 10 -26.2483 0.0066
0 6 11 -18.9394 0.5391
0 6 12 -2.3736 0.1940
0 6 13 -10.8856 -0.5015
0 6 14 21.7905 -0.9695
0 6 15 3.3454 -0.7086
0 6 16 21.7212 -1.0540
0 6 17 -1.5745 -2.1885
0 6 18 8.2781 -0.9280
0 6 19 -4.4947 -2.7861
0 6 20 -14.1481 -1.9741
0 6 21 11.9905 0.9253
0 6 22 -31.6254 -2.2053
0 6 23 21.4125 4.0151
0 6 24 -17.1267 -1.8026
0 6 25 8.6629 3.4390
0 6 26 10.6501 -1.1802
0 8 0 8.2146 0.4894
0 8 1 -0.1968 0.1194
0 8 2 -1.5424 0.0435
0 8 3 -1.0463 0.9676
0 8 4 -6.2087 1.0634
0 8 5 -6.9715 1.3693
0 8 6 11.0905 2.7705
0 8 7 -15.8997 0.5052
0 8 8 19.3469 1.7602
0 8 9 -14.5291 -0.2440
0 8 10 3.4412 0.1326
0 8 11 -0.0144 -0.5182
0 8 12 -8.9316 -1.3758
0 8 13 17.8864 -1.3617
0 8 14 0.9722 -2.8992
0 8 15 26.3195 -2.3345
0 8 16 16.5060 -0.6821
0 8 17 15.0546 -2.2620
0 8 18 11.2336 2.6154
0 8 19 -3.9941 -1.2940
0 8 20 -10.0270 2.5561
0 8 21 -7.3032 -0.7687
0 8 22 -11.3532 4.6854
0 8 23 1.6293 -2.1336
0 8 24 10.4899 9.7694
0 8 25 5.0571 -4.4194
0 10 0 17.3181 2.1324
0 10 1 19.2041 1.4207
0 10 2 10.6074 2.0000
0 10 3 35.0481 2.6960
0 10 4 -1.2195 0.8071
0 10 5 19.4518 1.4069
0 10 6 -7.0764 -2.2255
0 10 7 4.4724 0.2738
0 10 8 -5.0476 -3.4191
0 10 9 3.4430 1.4440
0 10 10 -0.1296 0.3427
0 10 11 5.9212 2.8950
0 10 12 0.5800 3.8675
0 10 13 8.1676 0.6100
0 10 14 2.5976 3.2515
0 10 15 6.8161 -2.8059
0 10 16 12.9176 2.6087
0 10 17 -0.6105 -1.2820
0 10 18 13.4741 2.5299
0 10 19 -1.6027 1.8044
0 10 20 -4.2744 0.4262
0 10 21 6.0596 1.0798
0 12 0 -2.8393 -4.6175
0 12 1 2.0068 0.1149
0 12 2 -1.7936 -2.8402
0 12 3 3.1964 0.7642
0 12 4 2.0076 0.4534
0 12 5 -5.7143 1.6514
0 12 6 6.3387 2.8658
0 12 7 -21.9348 0.9973
0 12 8 10.8522 3.3021
0 12 9 -23.4817 -1.3601
0 12 10 17.2493 0.8873
0 12 11 -2.5098 -0.4879
0 12 12 15.2628 -3.9569
0 12 13 10.7819 3.2293
0 12 14 1.5786 -7.0395
0 12 15 -3.6264 3.6319
0 12 16 -4.5301 -5.2751
0 14 0 4.1304 -2.4599
0 14 1 -2.4077 -1.7631
0 14 2 4.0382 -0.7437
0 14 3 0.2500 -3.4123
0 14 4 -1.3207 1.8296
0 14 5 5.3238 -1.8434
0 14 6 -12.0516 1.3957
0 14 7 -2.3813 -1.2576
0 14 8 -14.6007 -1.1841
0 14 9 -9.4995 -1.9413
0 14 10 -5.9758 -1.1584
1 1 0 -37.5902 8.0766
1 1 1 78.2915 10.4683
1 1 2 67.9803 9.8000
1 1 3 69.5006 5.8648
1 1 4 34.6399 4.8746
1 1 5 13.8862 4.8591
1 1 6 -73.1050 -0.6932
1 1 7 -46.4179 5.7994
1 1 8 -88.7137 -1.3854
1 1 9 -46.5979 4.9689
1 1 10 -24.7872 0.2057
1 1 11 1.6912 2.9105
1 1 12 14.7548 -1.2058
1 1 13 29.2570 2.2614
1 1 14 9.5229 -3.9502
1 1 15 12.6835 2.3419
1 1 16 0.2068 -4.4842
1 1 17 -5.3137 0.8990
1 1 18 5.2958 -5.1405
1 1 19 1.8358 -1.8031
1 1 20 8.1149 -6.6554
1 1 21 8.3572 -4.6709
1 1 22 -1.6713 -4.0555
1 1 23 -2.9560 -6.2772
1 1 24 -6.8271 2.9070
1 1 25 -13.0067 -2.4328
1 1 26 0.5510 7.9996
1 1 27 -11.2082 6.8532
1 1 28 3.4555 8.6200
1 1 29 -6.1983 12.5944
1 3 0 21.6436 -0.7416
1 3 1 -75.3740 -3.1944
1 3 2 19.6773 -1.3865
1 3 3 -23.9707 -3.9372
1 3 4 32.7497 -3.0501
1 3 5 -20.7790 -2.5315
1 3 6 34.2934 -3.0446
1 3 7 -48.6558 -0.4297
1 3 8 3.8252 -1.3889
1 3 9 -30.9051 0.1704
1 3 10 -22.5720 -0.2634
1 3 11 21.0847 0.3642
1 3 12 -13.0876 -0.1871
1 3 13 32.7961 0.9540
1 3 14 8.6754 0.2293
1 3 15 -6.5928 1.8983
1 3 16 10.0896 1.2038
1 3 17 -33.5186 2.6299
1 3 18 -2.4196 1.9581
1 3 19 -12.7097 2.0834
1 3 20 -5.3006 3.1793
1 3 21 15.5638 1.6177
1 3 22 4.8535 4.5490
1 3 23 13.0018 2.1302
1 3 24 13.6405 3.4436
1 3 25 -0.4933 2.3276
1 3 26 12.7172 0.1541
1 3 27 -2.2267 4.3232
1 3 28 7.3300 -2.7303
1 5 0 -2.3736 -0.1459
1 5 1 31.6756 -0.1765
1 5 2 -68.1162 -1.1975
1 5 3 20.2546 0.1837
1 5 4 -55.1154 -1.9593
1 5 5 -0.7803 1.6490
1 5 6 7.0751 -1.5828
1 5 7 -4.4037 2.3762
1 5 8 28.4504 -1.3099
1 5 9 11.0033 1.7376
1 5 10 6.5796 -0.8814
1 5 11 18.4057 1.1938
1 5 12 0.1184 0.8850
1 5 13 13.6037 0.5803
1 5 14 15.7056 2.5939
1 5 15 11.2008 0.6409
1 5 16 14.7146 2.7697
1 5 17 6.6600 1.2237
1 5 18 -4.1946 1.9986
1 5 19 0.3613 0.4870
1 5 20 -14.6131 1.0211
1 5 21 11.9635 1.7134
1 5 22 -17.9514 0.1727
1 5 23 32.1553 5.8955
1 5 24 -17.7650 -0.8686
1 5 25 24.7953 5.1798
1 5 26 -0.1173 -1.4092
1 7 0 4.1703 -0.7428
1 7 1 1.4725 -0.7324
1 7 2 3.8731 0.3586
1 7 3 -19.8965 -1.3430
1 7 4 -4.5185 -0.4103
1 7 5 -19.3307 -2.1660
1 7 6 1.5489 -0.6144
1 7 7 0.6331 -2.3176
1 7 8 19.7211 -0.1532
1 7 9 11.2485 -0.9054
1 7 10 16.7059 -0.4079
1 7 11 4.1388 0.7556
1 7 12 -5.4556 -0.0892
1 7 13 -2.7163 0.3484
1 7 14 -16.0740 -0.3333
1 7 15 5.1169 -0.7233
1 7 16 -8.8556 -1.2445
1 7 17 13.7718 -0.2197
1 7 18 6.3539 -0.2641
1 7 19 3.2267 0.9681
1 7 20 14.4643 0.9214
1 7 21 -11.2816 2.7094
1 7 22 -1.1713 3.0066
1 7 23 -4.1898 4.7172
1 7 24 -19.4344 9.8543
1 9 0 9.1360 0.6084
1 9 1 -8.4455 1.5866
1 9 2 10.4072 -2.0165
1 9 3 4.5596 0.9565
1 9 4 -7.4411 -3.0637
1 9 5 15.6276 0.1272
1 9 6 -22.0397 -0.5725
1 9 7 10.1041 -0.8666
1 9 8 -10.3878 0.9476
1 9 9 -1.6267 -2.5819
1 9 10 12.6913 -0.0402
1 9 11 -9.6395 -2.6255
1 9 12 18.2895 0.6900
1 9 13 -13.9213 -0.5037
1 9 14 3.6791 1.0501
1 9 15 -11.3883 -0.2493
1 9 16 -2.0158 -1.1213
1 9 17 -7.5725 -1.4611
1 9 18 15.0107 -1.6141
1 9 19 -12.0982 -0.2398
1 9 20 22.8137 -3.1497
1 9 21 -13.7290 0.7528
1 9 22 4.2069 -10.2783
1 11 0 -5.1047 -0.1551
1 11 1 -11.7587 -0.3264
1 11 2 -0.6978 0.4034
1 11 3 -2.1959 -1.6565
1 11 4 8.1568 1.3289
1 11 5 4.3382 -2.5317
1 11 6 15.2403 1.1556
1 11 7 -3.3587 -0.6939
1 11 8 11.9715 -0.9645
1 11 9 -11.9442 2.4856
1 11 10 3.1700 -2.4420
1 11 11 -7.7773 4.2169
1 11 12 0.6557 -1.2155
1 11 13 10.7725 4.0865
1 11 14 0.1002 0.7367
1 11 15 26.0389 0.2261
1 11 16 -1.9075 2.5334
1 11 17 13.3211 -4.9014
1 11 18 1.9724 5.3768
1 11 19 -15.8582 -3.4367
1 13 0 0.0660 2.3223
1 13 1 -3.0259 1.3494
1 13 2 0.7087 2.4801
1 13 3 -10.4287 1.0657
1 13 4 4.6848 1.6530
1 13 5 0.4087 1.4420
1 13 6 3.9249 0.4576
1 13 7 17.7210 3.5924
1 13 8 -5.9332 -0.4595
1 13 9 9.3090 2.1420
1 13 10 -12.2008 0.4127
1 13 12 -6.0853 3.9813
1 13 13 -8.3712 -11.0711
2 0 0 -281.1048 -29.4496
2 0 2 -275.5091 -26.4978
2 0 4 -103.6851 -16.0491
2 0 6 -15.9107 -8.8363
2 0 8 -41.7735 -6.6780
2 0 10 -47.3337 -3.2484
2 0 12 -10.0060 1.7648
2 0 14 6.2861 4.0194
2 0 16 -8.9453 5.0571
2 0 18 -17.4654 6.7751
2 0 20 -5.7451 5.7903
2 0 22 -0.4716 3.4694
2 0 24 -12.9855 4.7643
2 0 26 -16.2357 4.3889
2 0 28 -0.6620 -4.5207
2 2 0 10.4896 3.3528
2 2 1 -73.3755 0.7393
2 2 2 0.4458 5.3012
2 2 3 -50.3773 1.4494
2 2 4 31.5402 6.4858
2 2 5 18.4373 -0.6518
2 2 6 45.8305 4.3568
2 2 7 24.1106 -2.3588
2 2 8 29.1824 0.6815
2 2 9 -33.5054 -2.8603
2 2 10 11.0323 -0.7467
2 2 11 -54.8728 -3.0347
2 2 12 5.7867 -0.4419
2 2 13 -7.5976 -2.6430
2 2 14 7.9552 -1.7165
2 2 15 36.1320 -1.8637
2 2 16 10.6430 -3.8339
2 2 17 22.5696 -1.5227
2 2 18 10.8385 -4.0021
2 2 19 -9.8403 -1.5777
2 2 20 8.6985 -2.5448
2 2 21 -13.2257 -0.2430
2 2 22 4.8345 -0.4470
2 2 23 -5.9950 4.0895
2 2 24 0.9951 2.2793
2 2 25 -12.4478 8.7663
2 2 26 -0.7807 4.2685
2 2 27 -15.5313 9.4174
2 2 28 -1.6546 4.0132
2 2 29 -7.3150 5.9805
2 4 0 41.4885 -0.8439
2 4 1 -3.7744 2.3540
2 4 2 27.9900 -0.0851
2 4 3 16.5612 3.0884
2 4 4 -28.5268 -0.2280
2 4 5 47.2589 1.9374
2 4 6 -30.2592 -0.2610
2 4 7 36.3434 1.2793
2 4 8 11.0881 1.2324
2 4 9 1.3724 0.3392
2 4 10 20.2859 2.1655
2 4 11 -7.4749 -1.0234
2 4 12 -4.4681 0.6883
2 4 13 10.3441 -1.2396
2 4 14 -12.3078 -0.9744
2 4 15 24.8099 -0.6173
2 4 16 4.5461 -0.3768
2 4 17 20.3218 0.4624
2 4 18 13.2631 0.9856
2 4 19 4.0115 0.6220
2 4 20 3.8536 0.9552
2 4 21 -4.0966 -0.1746
2 4 22 -6.8901 0.8372
2 4 23 2.6829 3.3645
2 4 24 -11.6940 1.4153
2 4 25 8.5993 9.0408
2 4 26 -10.9299 0.3057
2 4 27 3.3316 5.2695
2 6 0 46.9076 1.7342
2 6 1 10.3174 -0.2183
2 6 2 58.8390 2.5476
2 6 3 14.1194 -1.0709
2 6 4 26.0449 2.6684
2 6 5 -4.1600 -0.9746
2 6 6 -4.9970 1.9566
2 6 7 -13.3677 -0.0319
2 6 8 -0.4243 1.3995
2 6 9 -0.0945 0.8133
2 6 10 17.0389 0.3378
2 6 11 11.0230 1.6300
2 6 12 14.0058 -0.6627
2 6 13 0.4380 1.2902
2 6 14 0.1891 -0.6581
2 6 15 -8.5638 -0.7471
2 6 16 -8.0457 -1.2150
2 6 17 7.5649 -1.0683
2 6 18 -11.0867 -1.7037
2 6 19 21.8906 -0.2752
2 6 20 9.6303 -0.4809
2 6 21 6.5148 -3.3929
2 6 22 53.6922 1.5241
2 6 23 -11.6446 -7.8793
2 6 24 64.9634 4.9931
2 6 25 -5.6619 -8.8506
2 8 0 -26.4462 -1.0672
2 8 1 -3.1421 -0.4330
2 8 2 -16.9186 -0.2635
2 8 3 -8.2569 0.0649
2 8 4 -0.2945 0.0480
2 8 5 -11.1371 0.4714
2 8 6 -7.9440 -1.2613
2 8 7 -0.0417 1.3426
2 8 8 -16.9260 -0.3006
2 8 9 13.7298 1.6242
2 8 10 -1.8067 1.3928
2 8 11 13.3978 0.4358
2 8 12 17.0310 1.8691
2 8 13 -3.7036 0.2145
2 8 14 14.3155 2.1619
2 8 15 -22.1419 1.7477
2 8 16 -5.6623 -0.2799
2 8 17 -20.6634 1.6835
2 8 18 -17.9260 -4.0284
2 8 19 -5.4927 -0.8557
2 8 20 -5.8089 -4.4202
2 8 21 -2.3187 -2.2717
2 8 22 8.9908 -5.7788
2 8 23 -11.1571 -0.1030
2 10 0 -8.7332 0.1203
2 10 1 5.4171 -0.9068
2 10 2 -9.2438 1.3343
2 10 3 -20.1157 -1.5532
2 10 4 -3.5697 0.9735
2 10 5 -20.7287 -0.7554
2 10 6 -1.1799 0.8667
2 10 7 -9.2331 0.4889
2 10 8 -5.1479 1.4042
2 10 9 0.5381 0.5449
2 10 10 -10.6653 -0.3792
2 10 11 5.2275 -2.3716
2 10 12 -9.3823 -2.4298
2 10 13 -3.1458 -3.9313
2 10 14 -6.8929 -0.3395
2 10 15 -13.9060 -0.0647
2 10 16 -16.6203 2.5538
2 10 17 -5.3123 4.0493
2 10 18 -24.1393 2.9721
2 10 19 8.6160 5.2836
2 10 20 -10.3703 3.7896
2 10 21 5.7406 6.2401
2 12 0 0.3352 0.0760
2 12 1 3.3241 -0.7085
2 12 2 -6.5595 -1.7345
2 12 3 -4.5070 0.3390
2 12 4 -10.4717 -2.4197
2 12 5 -9.3039 -0.1244
2 12 6 -9.0442 -1.0938
2 12 7 1.3583 -0.9648
2 12 8 -5.1979 1.3746
2 12 9 15.5258 -0.4614
2 12 10 -3.9889 2.5049
2 12 11 7.1026 -2.4173
2 12 12 -0.1663 1.0255
2 12 13 -15.0797 -6.2356
2 12 14 9.1964 -0.8692
2 12 15 -16.4003 -4.5278
2 12 16 10.4435 -1.6018
2 14 0 3.9966 1.4716
2 14 1 6.8839 3.7033
2 14 2 -1.2995 1.1556
2 14 3 0.3266 -0.2015
2 14 4 -1.6373 -1.9629
2 14 5 -16.4677 -4.4298
2 14 6 10.4472 -4.1566
2 14 7 -17.4757 -4.4086
2 14 8 17.9244 -1.8226
2 14 9 -2.7596 -1.2959
3 1 0 42.6938 7.0896
3 1 1 15.1112 -10.8685
3 1 2 -35.9635 3.9610
3 1 3 -51.7761 -8.8203
3 1 4 -53.6197 2.4443
3 1 5 -55.9979 -3.8665
3 1 6 17.2698 5.2568
3 1 7 -0.3697 0.6549
3 1 8 57.4679 6.8127
3 1 9 35.7452 4.2785
3 1 10 36.3590 3.9290
3 1 11 21.3420 6.0548
3 1 12 15.4044 1.4837
3 1 13 0.4994 5.3506
3 1 14 13.5893 1.0731
3 1 15 8.5092 3.6876
3 1 16 5.4954 -0.8815
3 1 17 22.6404 2.0535
3 1 18 -12.2117 -2.9524
3 1 19 12.6343 0.3197
3 1 20 -15.6008 -2.7818
3 1 21 -5.3892 -0.1596
3 1 22 1.5771 -4.7038
3 1 23 -5.6497 1.1431
3 1 24 13.7409 -10.4770
3 1 25 2.5477 0.0772
3 1 26 7.1254 -14.0059
3 1 27 4.3990 -5.9097
3 1 28 -1.2985 -12.0676
3 3 0 7.4557 -4.6382
3 3 1 69.8319 1.4700
3 3 2 27.8323 -5.4280
3 3 3 1.9488 2.3711
3 3 4 13.1216 -3.4991
3 3 5 -5.9535 1.2084
3 3 6 -17.8208 -1.1003
3 3 7 53.1623 -1.3009
3 3 8 -21.6245 -0.1605
3 3 9 73.3042 -2.2505
3 3 10 -4.5342 0.2690
3 3 11 22.9903 -1.7157
3 3 12 0.4552 0.7930
3 3 13 -24.9623 -0.8371
3 3 14 -6.6877 0.3474
3 3 15 -18.4879 -0.8145
3 3 16 -4.1054 -0.4786
3 3 17 11.7642 -1.7316
3 3 18 8.7435 0.4117
3 3 19 15.7240 -1.0334
3 3 20 12.4428 2.0558
3 3 21 0.7252 0.6246
3 3 22 -0.4061 1.5792
3 3 23 1.5651 0.6514
3 3 24 -15.9171 -0.9184
3 3 25 12.8999 1.5271
3 3 26 -19.4669 -3.6507
3 3 27 12.8021 2.9724
3 5 0 -37.0611 -1.0773
3 5 1 -43.7673 -2.2158
3 5 2 1.3510 -0.6603
3 5 3 -43.9892 -1.2524
3 5 4 18.2417 -0.1502
3 5 5 -28.5410 -0.3730
3 5 6 -2.6042 -0.5651
3 5 7 -13.9496 0.0059
3 5 8 -9.3511 -1.2808
3 5 9 -14.1997 0.3327
3 5 10 9.5920 -1.3879
3 5 11 -19.5501 -0.1727
3 5 12 12.2945 -1.3223
3 5 13 -23.4612 -0.7720
3 5 14 -11.1027 -0.5495
3 5 15 -27.3918 -1.2301
3 5 16 -20.6349 1.4669
3 5 17 -18.2892 -1.3760
3 5 18 -5.3723 3.3745
3 5 19 -0.2420 0.3058
3 5 20 6.1221 3.6691
3 5 21 -11.4944 -0.2184
3 5 22 14.2349 2.0858
3 5 23 -53.5654 -6.4593
3 5 24 28.6001 1.2743
3 5 25 -69.8543 -10.0917
3 7 0 -1.4311 0.0828
3 7 1 9.7242 -0.4544
3 7 2 -3.4076 -1.7478
3 7 3 32.4548 -0.9308
3 7 4 11.6907 -0.5742
3 7 5 30.2466 -0.6647
3 7 6 18.2812 0.7304
3 7 7 0.1638 -0.0243
3 7 8 -3.5930 0.6413
3 7 9 -17.9024 0.1676
3 7 10 -24.2440 1.2531
3 7 11 -4.3038 -0.1669
3 7 12 -21.3712 1.4284
3 7 13 16.0453 -0.1308
3 7 14 -7.3927 0.5500
3 7 15 11.5737 -0.0025
3 7 16 8.8464 -0.7515
3 7 17 -6.5303 -0.7040
3 7 18 15.0165 -2.3068
3 7 19 -2.5567 -1.4527
3 7 20 0.3041 -1.2308
3 7 21 18.8323 -1.9927
3 7 22 -6.6065 -0.3717
3 7 23 24.8352 -2.8517
3 9 0 -11.3487 -1.4615
3 9 1 -4.2542 0.5451
3 9 2 -23.2989 -0.6442
3 9 3 5.6244 1.2621
3 9 4 -10.3385 1.2234
3 9 5 5.9863 1.8990
3 9 6 12.4489 0.8154
3 9 7 4.2683 0.6737
3 9 8 14.8649 -0.3398
3 9 9 0.5253 0.0154
3 9 10 -1.5950 0.5517
3 9 11 -0.4208 0.3789
3 9 12 -12.1781 0.6235
3 9 13 5.8664 -0.4430
3 9 14 -3.8232 0.5493
3 9 15 7.1672 0.0598
3 9 16 5.9385 2.4710
3 9 17 3.0585 2.6096
3 9 18 -4.9226 1.9806
3 9 19 9.4182 1.8366
3 9 20 -19.3265 0.2937
3 9 21 16.4551 -1.6700
3 9 22 -10.4929 4.1488
3 11 0 9.3038 -0.4044
3 11 1 3.8071 1.5845
3 11 2 14.0088 -0.8256
3 11 3 -2.7572 -0.5150
3 11 4 8.5212 -0.1224
3 11 5 -13.8527 -0.2860
3 11 6 -0.5454 0.7958
3 11 7 -16.8229 -0.8801
3 11 8 -3.0951 1.7697
3 11 9 -13.1695 -1.4265
3 11 10 0.0824 3.1012
3 11 11 -5.1000 1.3452
3 11 12 0.8177 2.5919
3 11 13 -2.9841 3.6470
3 11 14 3.0148 -0.9448
3 11 15 -16.0726 3.9633
3 11 16 8.3398 -4.2829
3 11 17 -23.2209 5.4898
3 13 0 -0.2917 1.9722
3 13 1 3.1424 -1.5787
3 13 2 4.3067 2.8221
3 13 3 33.0525 -0.7452
3 13 4 -2.9581 2.9471
3 13 5 43.8621 -0.0276
3 13 6 -10.9854 1.8948
3 13 7 22.8190 0.0665
3 13 8 -6.4358 -0.3204
3 13 9 7.2182 1.3613
3 13 12 0.7165 -1.5123
4 0 0 97.1473 5.2778
4 0 2 193.0550 10.8128
4 0 4 132.3553 3.5419
4 0 6 63.2343 -7.6267
4 0 8 50.1607 -11.0307
4 0 10 23.2417 -8.7621
4 0 12 -25.5340 -6.2010
4 0 14 -35.9642 -2.4338
4 0 16 -3.0354 1.1715
4 0 18 19.4809 2.5786
4 0 20 7.2639 5.6137
4 0 22 -5.6204 8.3327
4 0 24 5.8090 1.9279
4 0 26 16.7420 -8.9254
4 0 28 7.5684 -9.8860
4 2 0 -3.0505 2.1586
4 2 1 39.1053 8.4868
4 2 2 2.8281 3.3862
4 2 3 62.9384 6.9957
4 2 4 -17.6932 3.3223
4 2 5 -3.4173 4.4097
4 2 6 -35.3060 2.8444
4 2 7 -37.8975 2.1340
4 2 8 -30.1621 3.3105
4 2 9 8.1720 0.4071
4 2 10 -14.9742 2.6925
4 2 11 50.4125 -1.5784
4 2 12 -2.0206 0.0743
4 2 13 25.9250 -4.4780
4 2 14 6.3540 -1.2262
4 2 15 -23.2192 -6.0905
4 2 16 7.4704 -0.2843
4 2 17 -30.6949 -4.8794
4 2 18 -0.5624 -0.4176
4 2 19 -3.3840 -2.5015
4 2 20 -11.7762 -2.3948
4 2 21 10.8150 -1.0616
4 2 22 -16.0788 -3.8011
4 2 23 8.9567 -2.4784
4 2 24 -12.6670 -4.0740
4 2 25 12.5471 -6.2790
4 2 26 -7.8812 -4.4191
4 2 27 14.1061 -7.6889
4 4 0 -21.8982 0.8509
4 4 1 59.8426 0.3976
4 4 2 -23.3371 0.2285
4 4 3 53.0091 0.1410
4 4 4 25.4189 -0.4746
4 4 5 -8.1533 1.6608
4 4 6 42.2045 -0.6868
4 4 7 -47.9234 1.7281
4 4 8 10.7211 -1.4178
4 4 9 -35.2542 0.7621
4 4 10 -8.9767 -1.8294
4 4 11 -7.2754 0.1344
4 4 12 5.2165 -0.4602
4 4 13 6.7425 -1.0874
4 4 14 15.7511 0.8846
4 4 15 3.3467 -2.4921
4 4 16 3.4331 -0.2284
4 4 17 -8.2953 -3.4824
4 4 18 -5.6140 -2.2259
4 4 19 -11.3148 -2.7210
4 4 20 5.3591 -1.9320
4 4 21 -4.2367 0.6318
4 4 22 20.8888 -0.4067
4 4 23 -2.6935 -0.1573
4 4 24 29.2349 -0.8167
4 4 25 -8.2427 -8.1572
4 4 26 28.9349 -1.6284
4 6 0 -15.5169 0.3331
4 6 1 -28.7432 0.4290
4 6 2 -36.8179 -0.1141
4 6 3 -34.0810 -0.5205
4 6 4 -32.3726 -0.5527
4 6 5 -3.1542 -1.5964
4 6 6 -13.0724 0.5002
4 6 7 23.1463 -1.7125
4 6 8 -6.5324 1.8635
4 6 9 17.1803 -0.9885
4 6 10 -14.4231 2.5112
4 6 11 0.7659 -0.4787
4 6 12 -14.8051 2.0025
4 6 13 4.6562 0.4358
4 6 14 -9.0387 0.5396
4 6 15 12.2133 2.4988
4 6 16 -5.2409 -0.2662
4 6 17 -8.6739 2.0490
4 6 18 5.8247 -1.6018
4 6 19 -31.7133 -2.4771
4 6 20 -0.4586 -4.2457
4 6 21 -13.0519 -5.8625
4 6 22 -53.5719 -5.2926
4 6 23 20.8842 -5.9336
4 6 24 -97.5469 -7.1086
4 8 0 23.2810 -0.0477
4 8 1 -2.4718 0.3435
4 8 2 11.2988 -0.0733
4 8 3 -4.0459 1.0470
4 8 4 -14.3294 -1.3549
4 8 5 4.3754 1.2139
4 8 6 -11.6941 -0.5455
4 8 7 3.0376 -0.0710
4 8 8 9.0212 -0.8835
4 8 9 -12.3638 -1.5233
4 8 10 13.3304 -2.5734
4 8 11 -24.8068 -0.2901
4 8 12 2.7833 -2.9890
4 8 13 -15.2291 1.4707
4 8 14 -5.1135 -1.9855
4 8 15 9.1877 0.1731
4 8 16 -2.9171 2.2902
4 8 17 15.0808 -1.1684
4 8 18 7.8953 7.7975
4 8 19 -4.0281 1.1173
4 8 20 11.8961 9.0834
4 8 21 -18.0213 4.4840
4 8 22 3.7131 10.1676
4 10 0 3.6016 0.7262
4 10 1 -14.1549 0.7217
4 10 2 15.4270 1.3256
4 10 3 -1.2930 -0.1685
4 10 4 17.2331 0.4751
4 10 5 4.1306 -1.4926
4 10 6 13.8521 -0.9725
4 10 7 6.3797 -1.5183
4 10 8 8.8449 -2.7137
4 10 9 7.1778 -2.6203
4 10 10 2.8638 -2.4587
4 10 11 1.5214 -2.5870
4 10 12 -6.1630 0.0505
4 10 13 6.2309 -0.0259
4 10 14 -11.1870 0.8876
4 10 15 24.4568 0.8225
4 10 16 2.9305 0.0947
4 10 17 24.8777 -0.2914
4 10 18 24.3784 -0.0935
4 10 19 6.4034 -1.9381
4 10 20 23.8487 -1.8350
4 12 0 -11.8614 -0.6441
4 12 1 -4.4434 -3.7699
4 12 2 -16.9628 -1.6897
4 12 3 1.3914 -2.4186
4 12 4 -19.0252 -2.1933
4 12 5 15.3873 -0.5503
4 12 6 -20.2521 -1.4074
4 12 7 20.4100 0.6852
4 12 8 -17.0715 -1.8140
4 12 9 7.5832 0.0353
4 12 10 -6.9269 -3.8826
4 12 11 -2.2022 2.6113
4 12 12 -0.2631 -2.0653
4 12 13 7.1339 10.4351
4 12 14 -5.9804 3.0598
4 12 15 15.5452 12.8180
4 14 0 -3.4797 1.8041
4 14 1 -1.4161 2.7995
4 14 2 10.6488 3.7094
4 14 3 -8.0263 6.8304
4 14 4 29.0069 5.2736
4 14 5 2.3501 9.2885
4 14 6 26.8307 7.7203
4 14 7 11.1840 7.2737
5 1 0 10.9187 -5.0563
5 1 1 -48.4091 -8.7509
5 1 2 29.4000 -5.6453
5 1 3 26.4900 -7.7160
5 1 4 38.7985 0.4851
5 1 5 64.3234 -6.6594
5 1 6 -1.7591 4.0020
5 1 7 24.7244 -4.6114
5 1 8 -23.7298 2.6728
5 1 9 -26.3474 -1.8941
5 1 10 -4.7903 2.4777
5 1 11 -32.0771 1.4872
5 1 12 3.8718 3.7112
5 1 13 -11.1625 4.5425
5 1 14 -13.5724 3.6468
5 1 15 -5.2908 5.2367
5 1 16 -20.0169 3.8464
5 1 17 -15.2193 4.4502
5 1 18 1.5748 3.5185
5 1 19 -14.2170 4.0206
5 1 20 20.3038 -0.0247
5 1 21 -1.9324 1.9845
5 1 22 11.4206 -2.3854
5 1 23 2.1424 -3.8921
5 1 24 -4.4789 1.5530
5 1 25 -0.4670 -10.0698
5 1 26 -4.3054 7.5217
5 1 27 -0.0454 -10.8089
5 3 0 -26.5496 -0.6547
5 3 1 -95.4320 0.6850
5 3 2 -41.3700 -0.6768
5 3 3 -30.3987 0.5123
5 3 4 -32.3853 -1.9316
5 3 5 19.6662 0.5522
5 3 6 -2.3003 -2.5584
5 3 7 -15.6072 0.7454
5 3 8 9.7318 -1.7617
5 3 9 -57.0490 0.1145
5 3 10 -3.5466 -1.1292
5 3 11 -40.6712 -0.1124
5 3 12 -13.8041 -1.5625
5 3 13 -1.3561 0.0221
5 3 14 -8.6578 -1.5679
5 3 15 8.9643 -0.1270
5 3 16 -2.5071 -0.2301
5 3 17 -7.8452 0.2620
5 3 18 -5.5916 0.7974
5 3 19 -16.7399 -0.6669
5 3 20 -10.5749 0.2056
5 3 21 -9.5840 -3.1499
5 3 22 -7.9971 -0.4483
5 3 23 -6.9627 -2.8709
5 3 24 0.2369 0.8919
5 3 25 -10.9166 -1.1090
5 3 26 5.6303 3.6875
5 5 0 37.5213 1.4724
5 5 1 9.9919 -0.0090
5 5 2 14.4573 2.1152
5 5 3 18.4864 0.0800
5 5 4 -8.9141 2.5582
5 5 5 23.5007 -0.1972
5 5 6 -7.1567 1.4338
5 5 7 21.9938 -0.5419
5 5 8 -6.4172 -0.5803
5 5 9 18.3348 -0.9526
5 5 10 -19.0043 -1.7277
5 5 11 10.6074 0.1618
5 5 12 -18.2314 -0.8149
5 5 13 6.0720 2.3383
5 5 14 6.1057 0.5486
5 5 15 17.9972 3.7426
5 5 16 16.5943 0.5129
5 5 17 25.6820 3.4528
5 5 18 -3.7486 -0.5170
5 5 19 6.3636 0.4401
5 5 20 -19.1754 -1.6091
5 5 21 -3.5820 -1.6787
5 5 22 -20.0584 -0.5836
5 5 23 30.5923 2.1010
5 5 24 -30.4043 2.7318
5 7 0 -3.0707 1.4192
5 7 1 31.1092 0.6073
5 7 2 15.4330 2.2576
5 7 3 -0.3299 1.5493
5 7 4 14.1198 0.6156
5 7 5 -25.8730 2.0946
5 7 6 -1.5564 -0.9706
5 7 7 -11.9805 2.0823
5 7 8 -0.6798 -0.1648
5 7 9 12.5814 1.7171
5 7 10 11.2227 0.2867
5 7 11 8.5723 0.6739
5 7 12 17.5390 -0.3376
5 7 13 -16.6156 -1.0811
5 7 14 21.6544 -0.6727
5 7 15 -20.8715 -2.3723
5 7 16 14.3563 0.7798
5 7 17 0.7513 -1.6508
5 7 18 -3.7024 3.2059
5 7 19 5.0500 1.1411
5 7 20 0.3955 -0.6334
5 7 21 -17.2100 4.9629
5 7 22 20.5490 -9.5489
5 7 23 -28.9391 8.2625
5 9 0 -3.9896 -0.7483
5 9 1 9.0887 -0.4346
5 9 2 17.0055 -0.4984
5 9 3 -2.3885 -0.2508
5 9 4 14.2667 -0.0903
5 9 5 -7.5253 -0.7395
5 9 6 -8.1799 0.6737
5 9 7 -5.2906 0.7320
5 9 8 -19.0367 1.6787
5 9 9 7.3816 2.5233
5 9 10 -10.3280 1.2433
5 9 11 18.0504 1.8689
5 9 12 0.0293 0.6832
5 9 13 9.6647 0.6758
5 9 14 -4.0534 -1.2715
5 9 15 -1.5809 -1.2232
5 9 16 -17.3508 -6.2350
5 9 17 1.4315 -4.2793
5 9 18 -19.2660 -7.6598
5 9 19 2.5517 -3.6314
5 9 20 -8.5066 -3.6037
5 9 21 -1.8787 0.3014
5 11 0 5.0623 1.2333
5 11 1 13.1132 -0.0890
5 11 2 -2.6188 1.5767
5 11 3 17.1061 2.0510
5 11 4 -0.9162 0.1454
5 11 5 18.3015 0.0615
5 11 6 6.7115 -1.5522
5 11 7 11.9135 -0.7918
5 11 8 10.7587 -0.8012
5 11 9 7.6616 2.2129
5 11 10 9.6827 -0.5181
5 11 11 3.3873 1.7355
5 11 12 10.2601 -2.8750
5 11 13 -3.8018 -2.8346
5 11 14 9.6653 -3.2016
5 11 15 2.3113 -5.7783
5 11 16 3.8527 0.6400
5 13 0 4.2681 -3.6865
5 13 1 -8.0706 -1.0814
5 13 2 -4.3781 -1.4278
5 13 3 -36.2890 -0.9625
5 13 4 -0.2292 -0.6847
5 13 5 -59.7693 1.2054
5 13 6 12.1295 -3.1018
5 13 7 -46.3329 0.6822
5 13 8 13.7714 -3.0338
5 13 9 -16.1046 -4.8813
5 13 10 4.7550 -1.8456
5 13 11 -3.6823 -12.0492
6 0 0 -35.5768 14.0372
6 0 2 -99.3149 7.1240
6 0 4 -75.6212 -0.2067
6 0 6 -50.6381 -2.1071
6 0 8 -67.0378 -4.0160
6 0 10 -58.6828 -6.9449
6 0 12 -5.3733 -7.1709
6 0 14 29.8411 -6.4128
6 0 16 12.8559 -5.1718
6 0 18 -14.0242 -1.3031
6 0 20 -7.3831 0.9900
6 0 22 10.9238 0.7092
6 0 24 4.4511 6.4638
6 0 26 -11.4247 16.8723
6 2 0 20.2145 -0.4881
6 2 1 -7.2290 2.5461
6 2 2 10.3837 -2.7948
6 2 3 -69.5736 2.3944
6 2 4 8.2863 -3.7680
6 2 5 -22.8210 3.3417
6 2 6 8.9724 -1.3448
6 2 7 41.0306 3.5754
6 2 8 6.0587 1.4252
6 2 9 29.7746 1.7777
6 2 10 6.3114 2.5251
6 2 11 -16.9920 -0.2303
6 2 12 11.1661 3.4872
6 2 13 -27.4378 0.3829
6 2 14 11.2961 3.6687
6 2 15 -2.0669 1.0712
6 2 16 2.4790 1.3057
6 2 17 12.5954 -1.2999
6 2 18 -4.6809 -1.3329
6 2 19 5.1919 -4.3395
6 2 20 -0.4813 -1.5973
6 2 21 2.8522 -5.3458
6 2 22 6.9129 -1.2897
6 2 23 7.8168 -3.1720
6 2 24 7.3182 -2.1194
6 2 25 2.4494 2.7954
6 2 26 3.9582 -1.3684
6 4 0 15.1396 1.1876
6 4 1 -6.2256 -1.3266
6 4 2 24.6953 0.6598
6 4 3 -38.0003 -2.7701
6 4 4 -7.1344 -0.0739
6 4 5 -18.6186 -4.1611
6 4 6 -22.2765 -0.7758
6 4 7 15.1812 -2.1025
6 4 8 2.0061 -0.5159
6 4 9 22.2340 1.1244
6 4 10 20.6437 0.1356
6 4 11 13.2717 1.7011
6 4 12 5.2226 -0.4426
6 4 13 3.5512 1.2321
6 4 14 -15.6172 -1.5204
6 4 15 -0.5999 1.3596
6 4 16 -12.2931 -1.1881
6 4 17 7.8915 1.8983
6 4 18 0.6091 0.2973
6 4 19 17.2023 2.1085
6 4 20 1.6555 0.4601
6 4 21 9.0462 0.2469
6 4 22 -2.1158 -1.5924
6 4 23 -6.0863 -0.2483
6 4 24 -3.0572 -2.5872
6 4 25 -6.7790 5.0029
6 6 0 -24.0192 -0.6540
6 6 1 -2.0167 0.2560
6 6 2 -6.3619 -0.6125
6 6 3 18.3605 0.7456
6 6 4 10.2028 0.1458
6 6 5 4.6345 0.5686
6 6 6 14.5393 0.0494
6 6 7 -15.0997 -1.0804
6 6 8 11.9651 -1.1022
6 6 9 -8.7538 -2.8329
6 6 10 9.8763 -1.9158
6 6 11 8.5090 -2.5504
6 6 12 0.8392 -0.8546
6 6 13 -3.2374 -0.7492
6 6 14 -6.8858 1.1217
6 6 15 -33.8746 0.3403
6 6 16 -0.5692 0.6896
6 6 17 -26.3565 2.0022
6 6 18 -3.9651 0.2465
6 6 19 16.5712 6.3539
6 6 20 -17.4080 3.2358
6 6 21 26.6779 11.1020
6 6 22 5.9953 4.2228
6 6 23 -4.5445 14.0824
6 8 0 -5.2085 -3.1722
6 8 1 -3.7704 0.6242
6 8 2 -15.6595 -3.3804
6 8 3 10.7570 -0.5415
6 8 4 -1.5458 -1.0131
6 8 5 7.8341 -1.4660
6 8 6 2.6578 -0.0146
6 8 7 -3.6170 -0.7054
6 8 8 -6.4584 0.4484
6 8 9 -4.0773 1.3750
6 8 10 -5.3842 1.1440
6 8 11 11.5924 1.3533
6 8 12 1.9878 0.9810
6 8 13 22.3801 -0.5527
6 8 14 3.0741 0.1329
6 8 15 11.4368 -0.3185
6 8 16 1.0659 -3.4149
6 8 17 1.3817 0.6118
6 8 18 -5.8220 -7.2671
6 8 19 11.2101 -1.8228
6 8 20 -15.3922 -4.2815
6 8 21 21.0738 -5.8216
6 10 0 2.8102 1.7716
6 10 1 2.3838 -3.5348
6 10 2 -3.3368 0.3860
6 10 3 -1.7200 -1.7615
6 10 4 -0.2680 0.2699
6 10 5 -1.6930 2.1179
6 10 6 2.5573 0.6704
6 10 7 -5.0779 2.3070
6 10 8 0.7469 0.4586
6 10 9 -14.7678 1.9722
6 10 10 -1.4094 -0.2346
6 10 11 -13.9825 3.2132
6 10 12 3.3488 -0.4256
6 10 13 -13.0125 2.7193
6 10 14 13.0552 1.2959
6 10 15 -30.9139 0.1450
6 10 16 12.4622 2.4736
6 10 17 -41.5109 -3.2838
6 10 19 -24.1873 -4.7340
6 12 0 6.7852 0.9441
6 12 1 3.3112 3.8803
6 12 2 8.2956 -0.4699
6 12 3 7.0908 0.6415
6 12 4 2.8270 1.1584
6 12 5 2.6091 -1.7591
6 12 6 -0.7562 1.8973
6 12 7 -7.2003 -2.0694
6 12 8 0.0527 2.2648
6 12 9 -7.3845 0.4539
6 12 10 -0.1439 7.1139
6 12 11 2.0615 1.2335
6 12 12 -0.2657 9.4273
6 12 13 4.5571 -6.3221
6 12 14 4.6727 1.6599
6 14 1 -2.9606 1.9500
6 14 2 10.1568 -6.0708
6 14 3 14.0184 -5.9102
6 14 4 -2.7632 -6.5168
7 1 0 -29.8721 -7.7574
7 1 1 57.3278 4.3831
7 1 2 -43.2436 -1.5150
7 1 3 24.1835 0.5350
7 1 4 -42.6897 -0.5045
7 1 5 -32.2923 -4.0652
7 1 6 -2.3386 -2.3914
7 1 7 -39.0806 -6.5211
7 1 8 20.9768 -0.9405
7 1 9 -12.8120 -5.5811
7 1 10 1.9271 1.5635
7 1 11 0.2577 -3.5190
7 1 12 -13.1495 2.7810
7 1 13 -2.4998 -1.9412
7 1 14 6.1387 4.3087
7 1 15 2.8764 0.6937
7 1 16 28.3196 4.5843
7 1 17 17.5990 4.0960
7 1 18 15.2553 2.6210
7 1 19 19.1393 6.2621
7 1 20 -15.5471 2.1400
7 1 21 5.5680 7.6989
7 1 22 -21.8079 3.4801
7 1 23 -2.2711 9.7102
7 1 24 -5.8170 2.2524
7 1 25 -1.2100 11.3406
7 1 26 2.5627 -1.7867
7 3 0 -22.8495 1.7335
7 3 1 74.2479 -0.9116
7 3 2 4.3556 3.4719
7 3 3 43.1053 0.3926
7 3 4 27.1881 3.7264
7 3 5 -19.0055 0.7790
7 3 6 23.6604 1.6305
7 3 7 -12.4617 0.4682
7 3 8 12.2710 -1.1227
7 3 9 28.9167 0.9569
7 3 10 6.7672 -2.0422
7 3 11 37.6925 0.3416
7 3 12 -1.3018 -1.1490
7 3 13 18.1691 -1.1723
7 3 14 -12.7041 -0.3761
7 3 15 5.6247 -0.6167
7 3 16 -14.0537 -0.6856
7 3 17 6.8149 0.5457
7 3 18 -2.2452 -1.3036
7 3 19 5.0210 1.1389
7 3 20 10.3094 -0.5135
7 3 21 -3.2191 2.8022
7 3 22 13.6001 1.7457
7 3 23 -6.1826 3.6023
7 3 24 8.4991 2.2464
7 3 25 -4.4423 2.7689
7 5 0 17.6372 0.6834
7 5 1 -3.6816 0.2717
7 5 2 16.9619 1.4775
7 5 3 0.8743 0.3566
7 5 4 6.8636 1.0455
7 5 5 0.3943 0.0341
7 5 6 -14.9162 1.1119
7 5 7 -3.7984 -0.5670
7 5 8 -17.3573 1.9345
7 5 9 -9.5495 -0.1216
7 5 10 10.4650 1.6785
7 5 11 -6.4113 -0.1816
7 5 12 35.8469 -0.9472
7 5 13 6.0910 -1.9294
7 5 14 27.2043 -3.2477
7 5 15 2.6682 -3.0719
7 5 16 6.9946 -2.6161
7 5 17 -14.3253 -1.4516
7 5 18 8.3457 -0.2071
7 5 19 -3.7292 2.7354
7 5 20 13.0494 3.8801
7 5 21 27.6808 5.3545
7 5 22 5.9662 8.2389
7 5 23 24.3514 2.3032
7 7 0 9.2824 -1.2614
7 7 1 -27.4160 0.2887
7 7 2 -3.8587 -2.0788
7 7 3 -6.2096 -0.7042
7 7 4 -10.2342 -1.3806
7 7 5 24.4838 -0.6695
7 7 6 2.5036 -0.2990
7 7 7 18.6617 0.4142
7 7 8 8.8292 -0.6955
7 7 9 -13.0743 0.8557
7 7 10 2.7809 -0.9691
7 7 11 -23.1190 0.4480
7 7 12 -5.0037 -0.3201
7 7 13 6.1654 -0.0636
7 7 14 -20.2744 0.9556
7 7 15 31.2062 -0.6225
7 7 16 -27.3473 0.3116
7 7 17 16.7387 -1.5338
7 7 18 -2.4606 -5.0059
7 7 19 -3.8306 -3.2289
7 7 20 22.2951 -6.3521
7 7 21 0.8471 -6.2862
7 7 22 14.4507 3.5235
7 9 0 11.7454 2.9921
7 9 1 -17.9915 -1.5228
7 9 2 -9.6423 2.9530
7 9 3 -18.9219 -1.1764
7 9 4 -17.8079 0.7408
7 9 5 -10.9272 -0.0330
7 9 6 -4.3979 -1.7043
7 9 7 4.8798 -0.8220
7 9 8 6.1663 -2.3929
7 9 9 9.2579 -3.8456
7 9 10 3.8695 -1.0082
7 9 11 -4.0593 -5.5856
7 9 12 1.3951 -0.6209
7 9 13 -11.2491 -4.9338
7 9 14 7.3825 0.0700
7 9 15 -9.3082 -0.8368
7 9 16 16.2357 4.6474
7 9 17 -15.1108 5.9657
7 9 19 -18.0616 8.1267
7 9 20 6.8877 2.3969
7 11 0 -16.9727 -0.6935
7 11 1 5.7447 3.7890
7 11 2 -12.6232 -1.0250
7 11 3 3.7558 0.3734
7 11 4 -10.9574 -0.6247
7 11 5 0.3540 0.0192
7 11 6 -11.2478 1.1440
7 11 7 2.2298 1.3258
7 11 8 -10.4148 -1.0420
7 11 9 -2.5823 -2.5142
7 11 10 -8.6083 -6.7494
7 11 11 -12.2496 -5.6252
7 11 12 -9.9645 -7.8847
7 11 13 -6.9146 -1.0462
7 11 14 -11.9068 -3.4608
7 11 15 4.8988 6.3989
7 11 16 -9.4033 0.1183
7 13 0 -9.0070 -1.3637
7 13 1 -19.5231 -1.9901
7 13 2 0.9608 -2.3705
7 13 3 -22.1746 0.0531
7 13 4 7.5195 -3.8034
7 13 5 -5.0056 -2.8963
7 13 6 1.9515 1.2546
7 13 7 6.3990 -4.7116
7 13 8 -2.6581 5.1074
7 13 9 4.4320 -0.5153
8 0 0 14.3108 3.4332
8 0 2 44.0454 3.3800
8 0 4 21.8947 6.9446
8 0 6 17.4639 6.6745
8 0 8 62.0243 3.4047
8 0 10 84.6216 0.1180
8 0 12 40.8254 -4.4067
8 0 14 -19.6796 -7.9101
8 0 16 -32.1953 -8.3012
8 0 18 -3.5326 -7.7727
8 0 20 11.6262 -4.3152
8 0 22 0.8665 2.5454
8 0 24 -2.4709 3.4718
8 0 26 7.1186 -3.7199
8 2 0 -0.3559 -3.5478
8 2 1 -15.7767 -3.7783
8 2 2 7.2348 -5.8227
8 2 3 44.0007 -0.1102
8 2 4 -1.4627 -3.9266
8 2 5 35.1429 2.6802
8 2 6 -11.1729 -1.6136
8 2 7 -12.2786 2.6490
8 2 8 -9.2881 -0.0448
8 2 9 -14.0245 2.2939
8 2 10 -1.9008 2.0758
8 2 11 21.3107 3.2493
8 2 12 -0.7719 2.9294
8 2 13 35.1115 2.4624
8 2 14 -6.2142 1.3184
8 2 15 15.3380 0.1786
8 2 16 -6.3358 0.5391
8 2 17 -2.0946 -0.4231
8 2 18 1.3444 2.2151
8 2 19 -0.7351 -0.5575
8 2 20 3.3536 3.2600
8 2 21 -0.9989 -1.1355
8 2 22 -2.9682 2.7488
8 2 23 -7.0564 -0.8151
8 2 24 -5.7540 3.1000
8 2 25 -3.4122 -1.4374
8 4 0 -9.6309 0.4709
8 4 1 -34.6011 -3.6792
8 4 2 -22.8808 -0.1658
8 4 3 15.8190 -3.0922
8 4 4 0.2736 -0.4111
8 4 5 32.8609 -0.1031
8 4 6 14.6621 -0.0089
8 4 7 12.1550 0.6899
8 4 8 -4.4583 -0.1603
8 4 9 -10.7370 -0.7062
8 4 10 -22.6899 -0.8142
8 4 11 -26.1715 -0.1618
8 4 12 -9.8583 -0.2396
8 4 13 -29.7723 0.8618
8 4 14 13.6827 1.3474
8 4 15 -15.3905 0.1023
8 4 16 15.6037 2.4060
8 4 17 -1.5779 -0.3555
8 4 18 2.5026 1.9408
8 4 19 -5.0066 0.6546
8 4 20 -3.5439 0.2509
8 4 21 -9.2950 1.9163
8 4 22 -5.0696 0.0377
8 4 23 0.0738 0.4867
8 6 0 -6.0915 -0.9577
8 6 1 16.5760 -0.2536
8 6 2 -2.7446 -0.2759
8 6 3 -22.0085 -0.0016
8 6 4 1.2291 -0.0830
8 6 5 -26.2544 -0.1204
8 6 6 2.0417 -0.2963
8 6 7 -4.6796 0.4570
8 6 8 -1.6676 0.3725
8 6 9 6.0223 1.3453
8 6 10 -10.8015 2.2310
8 6 11 -4.1468 1.3422
8 6 12 -9.7831 2.5498
8 6 13 -1.4922 1.0619
8 6 14 3.2234 -0.0059
8 6 15 29.8738 1.6852
8 6 16 5.2381 -0.3751
8 6 17 38.8080 1.9484
8 6 18 5.9644 1.3145
8 6 19 -4.9675 0.5652
8 6 20 23.7018 -2.3087
8 6 21 -41.1813 -1.4270
8 6 22 24.4853 -7.5171
8 8 0 8.6709 1.8233
8 8 1 18.6380 0.1785
8 8 2 26.1341 1.2258
8 8 3 4.5459 0.4201
8 8 4 15.5946 0.3597
8 8 5 -2.7666 0.7484
8 8 6 3.0601 1.2091
8 8 7 2.5954 0.3819
8 8 8 1.3666 1.8360
8 8 9 9.2799 -0.6992
8 8 10 -4.8670 1.1753
8 8 11 1.8226 -0.1541
8 8 12 -9.6254 0.1243
8 8 13 -11.9970 2.1550
8 8 14 0.5292 -1.1411
8 8 15 -6.9785 1.9489
8 8 16 9.8997 1.7528
8 8 17 8.7759 -0.9771
8 8 18 7.2205 8.9747
8 8 19 9.7347 -2.1975
8 8 20 4.1386 9.4874
8 10 0 -11.3333 -0.9793
8 10 1 -0.6960 2.9231
8 10 2 -6.9324 1.5959
8 10 3 1.1266 2.1545
8 10 4 -8.9852 2.4350
8 10 5 -7.7542 -2.0783
8 10 6 -6.5510 0.3616
8 10 7 -14.2383 -2.3054
8 10 8 5.3357 -0.6796
8 10 9 -1.3387 1.3793
8 10 10 14.8188 1.7207
8 10 11 9.9726 2.9357
8 10 12 8.7602 4.2099
8 10 13 7.8275 1.1356
8 10 14 -8.3673 2.4445
8 10 15 14.6039 -0.8499
8 10 16 -17.0791 -0.1006
8 10 17 26.0273 1.5319
8 12 0 18.2520 -1.6052
8 12 1 5.8911 -5.9259
8 12 2 18.3998 0.2487
8 12 3 4.8556 0.0964
8 12 4 19.7705 -1.2635
8 12 5 1.4457 6.6709
8 12 6 16.4670 -1.6950
8 12 7 2.7269 8.8170
8 12 8 6.3906 2.7301
8 12 9 5.3164 5.0030
8 12 10 -2.3134 2.5982
8 12 11 1.8018 -2.5107
8 12 12 -3.8927 -3.6376
9 1 0 11.5788 2.0693
9 1 1 -34.7592 4.7048
9 1 2 47.8442 -4.0699
9 1 3 -34.3988 2.0699
9 1 4 59.4742 -8.2251
9 1 5 7.4809 -0.7867
9 1 6 15.9291 -6.1304
9 1 7 24.9197 -2.9688
9 1 8 -26.0868 -3.2827
9 1 9 9.4675 -5.0674
9 1 10 -20.7390 -1.5670
9 1 11 -3.3009 -5.8623
9 1 12 5.6031 0.5483
9 1 13 -0.6611 -4.4269
9 1 14 7.9225 1.5894
9 1 15 -0.6064 -2.7533
9 1 16 -13.8170 1.5635
9 1 17 -11.1846 -1.4308
9 1 18 -20.8605 2.2857
9 1 19 -14.2636 -0.0862
9 1 20 -0.4782 1.8352
9 1 21 -2.9292 -0.0830
9 1 22 14.5211 -1.9147
9 1 23 4.5960 -1.3616
9 1 24 7.1937 -6.0684
9 1 25 2.6496 -2.7590
9 3 0 23.7396 1.2942
9 3 1 -34.3848 0.3477
9 3 2 3.3368 2.4315
9 3 3 -46.1279 -0.1047
9 3 4 -13.6706 2.5349
9 3 5 -5.1244 0.1336
9 3 6 -8.8851 2.4891
9 3 7 5.5031 1.2826
9 3 8 1.4453 1.8487
9 3 9 -16.7832 0.6252
9 3 10 2.6580 -0.6162
9 3 11 -23.9244 0.0906
9 3 12 4.5493 -3.3509
9 3 13 -12.5624 1.4749
9 3 14 13.1447 -3.9211
9 3 15 -8.8389 0.8865
9 3 16 16.0453 -2.9150
9 3 17 -14.7095 -1.3401
9 3 18 8.3429 -1.6649
9 3 19 -12.4576 -0.9404
9 3 20 1.6084 -1.1265
9 3 21 -2.8376 0.9501
9 3 22 1.0806 -2.5116
9 3 23 -0.6565 1.7962
9 3 24 1.0997 -3.5388
9 5 0 -9.7178 -1.9776
9 5 1 23.6710 0.7357
9 5 2 -18.6201 -3.5306
9 5 3 5.1081 -0.2138
9 5 4 -15.9846 -2.5011
9 5 5 -9.1526 -0.7070
9 5 6 5.5662 -0.2535
9 5 7 -9.5828 -0.0893
9 5 8 16.2468 0.9899
9 5 9 4.6446 -0.3017
9 5 10 -1.7620 0.9316
9 5 11 19.1590 -0.9461
9 5 12 -27.3770 1.4601
9 5 13 12.5403 0.5275
9 5 14 -26.8789 1.4697
9 5 15 -0.2483 2.2748
9 5 16 -8.2558 -1.1498
9 5 17 7.3171 -0.4800
9 5 18 -5.5126 -3.1623
9 5 19 12.8627 -7.8291
9 5 20 -11.7427 -3.6338
9 5 21 -7.4340 -12.8434
9 7 0 -10.4559 1.5924
9 7 1 6.7211 0.6560
9 7 2 -11.3166 0.7351
9 7 3 10.5267 0.7036
9 7 4 -2.7933 -1.5976
9 7 5 -11.4571 -0.0321
9 7 6 -1.8362 -2.9948
9 7 7 -19.1997 -1.6558
9 7 8 1.4754 -2.2888
9 7 9 -2.1577 -1.4106
9 7 10 6.0331 -1.2089
9 7 11 10.8290 0.5172
9 7 12 -2.1283 0.4628
9 7 13 -9.0508 1.3942
9 7 14 -5.5394 1.9871
9 7 15 -37.7500 0.5996
9 7 16 5.5574 2.6898
9 7 17 -30.3487 -1.2032
9 7 18 1.3302 7.4822
9 7 19 -2.8975 -3.3052
9 7 20 -19.3843 13.1079
9 7 21 2.5626 -3.5005
9 9 0 -16.0579 -1.0212
9 9 1 3.5650 -1.7121
9 9 2 0.9714 -1.4704
9 9 3 8.0029 -1.0261
9 9 4 17.0329 -0.4097
9 9 5 11.1944 -0.4809
9 9 6 11.7397 2.2464
9 9 7 1.9063 -0.2994
9 9 8 2.0439 3.0962
9 9 9 -8.3177 -0.1000
9 9 10 3.9527 0.7892
9 9 11 0.5055 -0.0558
9 9 12 8.1038 0.0932
9 9 13 12.6265 0.8201
9 9 14 3.8011 0.6249
9 9 15 10.7696 0.5539
9 9 16 -3.3049 -4.4418
9 11 0 9.8740 0.0321
9 11 1 -13.2985 0.4009
9 11 2 5.8515 -0.4783
9 11 3 -3.7933 2.5371
9 11 4 1.6430 0.5534
9 11 5 11.7196 1.6376
9 11 6 -3.2332 0.0844
9 11 7 13.8869 -3.2874
9 11 8 -6.6101 0.9338
9 11 9 10.2397 -1.6832
9 11 10 -5.4676 7.2901
9 11 11 15.2736 7.3548
9 11 12 -0.7785 13.6721
9 11 13 15.1838 12.1166
9 11 14 1.4783 12.7343
9 13 0 4.4514 0.7754
9 13 1 14.9915 4.9046
9 13 2 1.2437 2.2621
9 13 3 23.6640 1.9543
9 13 4 -6.3739 9.2797
9 13 5 17.5949 6.9447
9 13 6 -5.9813 8.1813
9 13 7 6.7087 13.2364
9 13 8 -2.2183 1.1263
10 0 0 -14.3855 -10.8964
10 0 2 -50.6856 -0.0984
10 0 4 -13.7516 7.0434
10 0 6 24.5842 10.0244
10 0 8 1.4646 9.3020
10 0 10 -42.4810 4.5984
10 0 12 -46.6807 0.5821
10 0 14 -12.3664 -0.6990
10 0 16 14.5425 -1.5869
10 0 18 8.7281 -3.0477
10 0 20 -4.6764 -7.7862
10 0 22 -1.2033 -15.4208
10 0 24 3.8580 -15.7091
10 2 0 12.3905 3.1195
10 2 1 17.7729 -0.4374
10 2 2 -6.4692 3.9504
10 2 3 -24.5998 -0.7257
10 2 4 -6.3185 1.3172
10 2 5 -37.2076 -0.9523
10 2 6 1.1693 -1.5544
10 2 7 -6.4107 1.3011
10 2 8 -0.0636 -1.9489
10 2 9 6.7762 4.6784
10 2 10 -9.0897 -1.6602
10 2 11 -11.1503 5.3033
10 2 12 -12.8152 -1.3497
10 2 13 -21.5736 4.6439
10 2 14 -1.7041 0.7668
10 2 15 -7.8795 4.0343
10 2 16 12.9818 2.9459
10 2 17 3.0053 1.7200
10 2 18 12.9578 1.9253
10 2 19 -4.8953 0.1327
10 2 20 4.1589 -0.1913
10 2 21 -8.7096 1.1680
10 2 22 2.5781 -0.6309
10 2 23 1.1122 1.5048
10 2 24 5.1287 -1.8637
10 4 0 1.1204 -2.9537
10 4 1 22.1955 2.0964
10 4 2 17.0458 -1.6812
10 4 3 5.4845 2.8301
10 4 4 -3.2827 0.2872
10 4 5 -9.5441 0.6174
10 4 6 -20.3452 0.7248
10 4 7 -5.4942 -0.8111
10 4 8 -4.2927 0.4460
10 4 9 -1.9364 0.4355
10 4 10 17.1623 0.7353
10 4 11 0.2007 0.1680
10 4 12 9.6085 0.3330
10 4 13 8.3395 -1.3374
10 4 14 -13.9984 -0.4973
10 4 15 9.7910 -0.7633
10 4 16 -19.9745 -0.4794
10 4 17 2.0169 -1.2092
10 4 18 -10.3879 0.5237
10 4 19 3.2219 -6.2500
10 4 20 -8.0783 3.4522
10 4 21 12.5702 -11.9552
10 4 22 -10.6335 6.6307
10 6 0 15.0902 1.2562
10 6 1 -23.7304 1.8808
10 6 2 12.5930 1.0642
10 6 3 3.6299 2.5248
10 6 4 0.5174 -0.0413
10 6 5 13.2121 2.6731
10 6 6 -7.8449 -1.0297
10 6 7 0.9944 0.8020
10 6 8 -4.9761 -1.2062
10 6 9 -7.4859 -1.9551
10 6 10 12.0491 -1.4107
10 6 11 5.3713 -3.0248
10 6 12 24.0525 -0.3294
10 6 13 17.4914 -3.2960
10 6 14 13.0860 4.6809
10 6 15 -6.9126 -3.9022
10 6 16 -0.3660 7.2911
10 6 17 -41.6050 -2.3713
10 6 18 -3.0158 1.3976
10 6 19 -30.4226 1.7927
10 6 20 -9.5196 -3.8095
10 6 21 7.7497 4.7327
10 8 0 3.4937 -1.6799
10 8 1 -7.9796 -0.7031
10 8 2 -7.9685 0.6193
10 8 3 -0.7217 -1.2246
10 8 4 -8.0368 2.5469
10 8 5 7.4943 -1.1590
10 8 6 -9.1920 1.2781
10 8 7 7.9768 0.0187
10 8 8 -17.4298 -0.2071
10 8 9 0.1660 1.6096
10 8 10 -11.9984 -0.5374
10 8 11 -5.0692 1.7053
10 8 12 5.6823 -1.1045
10 8 13 0.3444 -0.2380
10 8 14 8.9158 -0.2876
10 8 15 2.0009 -0.4758
10 8 16 -1.4176 -1.0353
10 8 17 -4.2862 2.6705
10 8 19 -2.6656 5.2014
10 10 0 2.9686 -2.8356
10 10 1 3.8221 -1.0407
10 10 2 -5.4715 -3.8271
10 10 3 -5.7206 -0.9687
10 10 4 -1.2746 -3.5990
10 10 5 -2.0338 2.6370
10 10 6 7.9655 -0.3006
10 10 7 12.2462 4.8393
10 10 8 4.9556 2.0129
10 10 9 9.9196 1.6663
10 10 10 -8.5622 -2.7589
10 10 11 -3.2010 -3.9164
10 10 12 -14.5378 -10.9819
10 10 13 -3.0953 -6.9220
10 10 14 -7.5635 -11.7249
10 10 15 -0.9928 -5.8523
10 10 16 -1.3765 -5.1833
10 12 0 -4.0455 4.0351
10 12 1 -6.3471 7.7933
10 12 2 3.4395 0.4631
10 12 3 -13.3774 -0.6497
10 12 4 7.5215 -1.7881
10 12 5 -12.8592 -12.3020
10 12 6 5.8675 -1.4403
10 12 7 -7.7802 -18.5239
10 12 8 2.6646 -4.7455
10 12 9 -4.4339 -17.9844
11 1 0 19.7525 2.6431
11 1 1 -3.1932 -2.0031
11 1 2 -18.5015 2.1303
11 1 3 24.1514 2.3175
11 1 4 -59.4449 2.1188
11 1 5 15.0183 4.5390
11 1 6 -45.6160 -1.1333
11 1 7 4.5221 2.6581
11 1 8 -5.6459 -4.3038
11 1 9 8.0746 -0.9238
11 1 10 10.3945 -4.6813
11 1 11 6.8324 -3.7841
11 1 12 0.3169 -3.9254
11 1 13 -7.5573 -4.8918
11 1 14 -7.4516 -1.9753
11 1 15 -15.2413 -3.3147
11 1 16 3.4529 1.2907
11 1 17 -1.2576 -1.9316
11 1 18 15.9322 2.8728
11 1 19 14.8227 -3.0607
11 1 20 7.7362 1.8325
11 1 21 12.1935 -3.3445
11 1 22 -8.2454 1.2827
11 1 23 2.9981 -1.7362
11 3 0 -18.4748 0.6470
11 3 1 14.0681 0.0783
11 3 2 -10.6840 0.8367
11 3 3 28.9709 -1.8857
11 3 4 3.3871 1.0085
11 3 5 1.3824 -1.3404
11 3 6 5.5110 0.5917
11 3 7 -12.2029 -0.3363
11 3 8 5.1496 0.0000
11 3 9 5.6089 1.8988
11 3 10 13.5746 1.2293
11 3 11 17.8635 2.9405
11 3 12 16.8337 3.1970
11 3 13 10.7050 -0.5355
11 3 14 1.7604 2.4446
11 3 15 6.5816 -3.1668
11 3 16 -14.9276 0.0175
11 3 17 14.6589 -1.0104
11 3 18 -14.6133 -1.2836
11 3 19 16.5143 0.5378
11 3 20 -6.4855 -1.1659
11 3 21 6.8105 -1.4817
11 3 22 -3.1786 1.1913
11 5 0 -5.1243 0.1029
11 5 1 -24.2057 0.5720
11 5 2 24.5664 0.0842
11 5 3 -12.6613 0.5715
11 5 4 41.6895 -0.1807
11 5 5 4.5525 0.5429
11 5 6 20.4381 -0.1158
11 5 7 13.6172 -0.4999
11 5 8 -12.4443 0.2429
11 5 9 6.9440 -1.5286
11 5 10 -21.6954 1.1178
11 5 11 -15.0141 -1.1655
11 5 12 -5.4127 0.4032
11 5 13 -26.6449 -1.3394
11 5 14 7.9805 -2.1828
11 5 15 -15.8793 -2.0095
11 5 16 7.5112 -2.5847
11 5 17 -9.8630 2.1661
11 5 18 11.1035 -2.3529
11 5 19 -17.0296 12.7576
11 5 20 16.3369 -5.5139
11 7 0 -7.9791 -0.7562
11 7 1 -6.2507 0.9956
11 7 2 -6.2179 0.7888
11 7 3 -11.3770 0.2691
11 7 4 -5.0220 3.4637
11 7 5 9.9734 0.0098
11 7 6 2.4756 3.4968
11 7 7 24.0792 2.6507
11 7 8 3.0772 0.2907
11 7 9 14.2979 4.1211
11 7 10 -5.8330 -1.9580
11 7 11 -3.8427 2.2807
11 7 12 -2.8909 -3.2385
11 7 13 0.1718 0.3009
11 7 14 6.2118 -4.3699
11 7 15 24.9424 -1.1109
11 7 16 -1.3075 -1.6578
11 7 17 31.6344 -3.1474
11 7 18 -11.6738 1.5966
11 7 19 14.0140 -4.0447
11 9 0 17.5230 1.3369
11 9 1 10.5640 -0.5048
11 9 2 13.5253 0.4546
11 9 3 7.1185 0.4817
11 9 4 0.5775 -0.3277
11 9 5 -9.3809 1.2847
11 9 6 -1.0563 -2.5168
11 9 7 -19.2133 1.4660
11 9 8 3.6084 -2.9474
11 9 9 -10.4009 2.1854
11 9 10 0.1342 1.8094
11 9 11 -2.5090 3.8977
11 9 12 -6.3793 5.5480
11 9 13 -3.4479 3.8168
11 9 14 -2.1117 3.6060
11 9 15 -1.9273 2.2083
11 9 16 8.5429 3.4771
11 9 17 -1.3408 3.7493
11 11 0 -6.5363 0.7226
11 11 1 2.6238 1.1390
11 11 2 -6.9024 3.1434
11 11 3 0.3878 -1.9766
11 11 4 -9.2183 2.8424
11 11 5 -12.5786 -4.7011
11 11 6 -5.4787 1.0504
11 11 7 -16.0962 -1.3891
11 11 8 4.4594 0.2248
11 11 9 -8.4081 1.0178
11 11 10 9.6990 -2.7971
11 11 11 -10.1722 -5.2521
11 11 12 5.1603 -9.8593
11 13 0 1.3881 -0.8533
11 13 1 12.5730 -13.5719
11 13 2 -3.1299 -0.6291
11 13 3 8.0259 -9.1582
11 13 4 -0.6801 -8.9530
11 13 5 1.4924 -8.9054
12 0 0 -10.2011 7.9303
12 0 2 37.0577 2.4348
12 0 4 20.1905 1.0654
12 0 6 -20.4949 3.2041
12 0 8 -16.0831 4.8725
12 0 10 21.5999 6.7909
12 0 12 43.5921 7.6508
12 0 14 31.7588 5.2728
12 0 16 4.0266 1.0948
12 0 18 -11.1307 -2.2924
12 0 20 -8.8600 0.0280
12 0 22 -5.9565 9.4619
12 2 0 -38.0037 0.0123
12 2 1 4.7648 -0.0676
12 2 2 -1.1821 -0.1338
12 2 3 20.1455 -3.2256
12 2 4 18.6411 -0.4694
12 2 5 24.0675 -4.1161
12 2 6 13.8593 -1.1401
12 2 7 -2.9236 -4.0536
12 2 8 2.3135 -2.5424
12 2 9 -17.8826 -4.3915
12 2 10 -1.9410 -2.6355
12 2 11 -0.1574 -2.1049
12 2 12 2.2318 -0.5890
12 2 13 20.4464 1.6238
12 2 14 3.1852 -0.0042
12 2 15 15.1079 3.7703
12 2 16 -5.4187 -2.1323
12 2 17 -0.5692 5.2733
12 2 18 -10.4654 -3.1168
12 2 19 0.1436 4.0460
12 2 20 -4.5665 -2.6264
12 2 21 5.8600 -1.6480
12 2 22 0.5905 -3.5950
12 4 0 9.5683 1.5817
12 4 1 -15.6176 0.8982
12 4 2 -16.7004 1.1871
12 4 3 -8.6573 1.3024
12 4 4 -6.0705 -0.8364
12 4 5 9.4556 0.7264
12 4 6 14.9925 -1.0914
12 4 7 14.2392 -0.3976
12 4 8 8.1690 0.0471
12 4 9 15.2303 -2.4982
12 4 10 -13.2117 -0.6762
12 4 11 17.3092 -1.8619
12 4 12 -12.7054 -1.7771
12 4 13 8.1589 1.6492
12 4 14 7.2892 -1.5923
12 4 15 -5.1558 2.7929
12 4 16 13.6689 -1.0718
12 4 17 -4.8768 3.2603
12 4 18 3.4016 0.1558
12 4 19 1.7386 9.2700
12 4 20 0.6584 0.4344
12 6 0 4.1997 -0.3399
12 6 1 35.0118 -3.0294
12 6 2 -13.9557 0.4040
12 6 3 14.6404 -2.0809
12 6 4 -13.7888 0.8998
12 6 5 -5.7698 -0.9472
12 6 6 0.3694 0.8798
12 6 7 -8.3018 1.7618
12 6 8 14.0420 -0.3413
12 6 9 -1.1185 5.0687
12 6 10 9.5476 -1.1695
12 6 11 -1.2475 4.4189
12 6 12 -7.7913 -0.3502
12 6 13 -10.2854 0.9247
12 6 14 -13.1054 -2.7674
12 6 15 -1.0662 -1.2746
12 6 16 -6.7198 -7.3784
12 6 17 28.4437 -3.8711
12 6 18 -1.8862 -3.6840
12 6 19 35.4697 -8.4122
12 8 0 -3.1333 4.0167
12 8 1 -5.2480 -0.0372
12 8 2 2.1159 0.0267
12 8 3 -10.5166 0.5890
12 8 4 0.5923 -3.7991
12 8 5 -9.5829 0.1637
12 8 6 1.9361 -1.3664
12 8 7 -3.4007 -2.1401
12 8 8 11.9836 3.4809
12 8 9 0.4668 -4.6902
12 8 10 12.0355 5.2204
12 8 11 -0.0650 -5.2766
12 8 12 -4.5517 4.0959
12 8 13 -6.2300 -1.8857
12 8 14 -13.9637 -0.8397
12 8 15 -8.9087 3.4918
12 8 16 -4.1731 -7.3896
12 8 17 -2.7150 6.0588
12 10 0 -4.3216 -2.1480
12 10 1 -2.6411 -1.3595
12 10 2 1.4084 -1.0892
12 10 3 14.0702 -3.3595
12 10 4 -1.1517 0.3467
12 10 5 22.0544 -4.9893
12 10 6 -12.6624 -1.4547
12 10 7 7.5162 -5.2830
12 10 8 -15.4715 -6.7238
12 10 9 -4.8218 -2.3991
12 10 10 -0.9478 -6.2493
12 10 11 0.7946 3.3372
12 10 12 13.3815 4.0487
12 10 13 4.8479 7.8175
12 10 14 11.3721 12.2392
12 12 0 -8.2318 1.3206
12 12 1 -5.7031 -8.6134
12 12 2 -5.9435 1.2053
12 12 3 -1.7630 -1.5027
12 12 4 -3.4373 0.2039
12 12 5 2.1455 11.2319
12 12 6 -0.9766 -2.9422
12 12 7 2.2489 17.5084
12 12 8 0.2665 -2.5061
13 1 0 -23.6975 -0.8715
13 1 1 11.1253 -1.6922
13 1 2 -9.2707 -1.3545
13 1 3 -10.1316 0.5220
13 1 4 37.4356 -2.9184
13 1 5 -2.3415 1.9715
13 1 6 50.2662 -1.6635
13 1 7 10.2363 3.0925
13 1 8 25.8757 0.5839
13 1 9 6.0328 2.7459
13 1 10 2.2434 -0.1242
13 1 11 -4.2600 1.2545
13 1 12 -6.3163 -2.5856
13 1 13 -2.5803 -0.1003
13 1 14 -6.4247 -4.9247
13 1 15 5.8581 -3.1533
13 1 16 -6.6257 -6.7590
13 1 17 1.4092 -5.7310
13 1 18 -8.4738 -5.4756
13 1 19 -11.7657 -3.5610
13 1 20 -4.1542 0.0237
13 1 21 -13.0822 -0.6766
13 1 22 5.2174 4.6791
13 3 0 22.5697 1.2473
13 3 1 -3.5207 0.5357
13 3 2 9.3045 -1.2401
13 3 3 -11.7373 2.4755
13 3 4 -12.8341 -0.7163
13 3 5 5.8511 1.5520
13 3 6 -16.7808 1.2421
13 3 7 15.8205 0.1159
13 3 8 -6.5027 3.2596
13 3 9 -0.9288 -1.5274
13 3 10 -3.3821 3.1864
13 3 11 -17.3769 -2.4908
13 3 12 -8.1699 1.2562
13 3 13 -12.2637 0.4072
13 3 14 -3.4469 1.3849
13 3 15 -1.5006 2.3594
13 3 16 7.8870 3.0123
13 3 17 -5.0857 -2.5538
13 3 18 7.4610 2.8440
13 3 19 -12.2730 -8.0035
13 3 20 -0.6926 2.1595
13 5 0 8.1701 -1.2777
13 5 1 17.9165 -2.2415
13 5 2 -3.4766 -0.0135
13 5 3 15.6317 -2.1021
13 5 4 -23.7754 1.1722
13 5 5 3.0769 -0.6001
13 5 6 -19.5515 0.8551
13 5 7 -9.0899 0.1808
13 5 8 1.7905 0.9152
13 5 9 -14.3247 -0.3235
13 5 10 12.9556 0.6976
13 5 11 0.7289 -2.4383
13 5 12 6.0138 0.4330
13 5 13 25.2712 -3.1856
13 5 14 0.3481 2.5551
13 5 15 30.5496 0.1978
13 5 16 5.3349 3.5259
13 5 17 20.6253 2.1319
13 5 18 4.4295 1.0168
13 7 0 8.7173 0.3390
13 7 1 -1.9722 -0.8758
13 7 2 12.7774 -0.1869
13 7 3 7.4005 -1.4299
13 7 4 5.4706 -1.6462
13 7 5 -5.4719 -1.3525
13 7 6 -11.3474 -1.3828
13 7 7 -15.0348 -4.2465
13 7 8 -15.8377 1.4488
13 7 9 -6.7152 -4.8902
13 7 10 0.3190 2.0999
13 7 11 8.3888 0.8788
13 7 12 10.7064 0.4036
13 7 13 7.7208 6.6090
13 7 14 2.0465 1.1162
13 7 15 -12.8532 7.6618
13 7 16 -6.0387 0.9630
13 9 0 -6.9010 -0.1034
13 9 1 0.2089 2.6299
13 9 2 -11.1365 0.9127
13 9 3 -8.7094 2.1545
13 9 4 -4.6626 -0.1004
13 9 5 -6.5619 1.2906
13 9 6 -0.6430 -0.9207
13 9 7 4.9842 1.9165
13 9 8 -3.1200 -1.1869
13 9 9 7.8323 1.8716
13 9 10 -4.0009 -4.5574
13 9 11 4.2194 -1.8120
13 9 12 0.9333 -7.1315
13 9 13 5.4745 -6.3776
13 9 14 2.9663 -2.1042
13 9 15 6.8702 -7.2145
13 11 0 6.5944 -1.7285
13 11 1 -6.0132 -2.6891
13 11 2 6.0135 -4.3505
13 11 3 -13.9101 3.9844
13 11 4 10.6388 -4.2805
13 11 5 -3.4221 10.7670
13 11 6 12.0549 2.1264
13 11 7 9.9269 9.6372
13 11 8 3.0717 9.1603
13 11 10 -7.3375 10.2830
13 13 0 -2.6851 -3.8503
13 13 1 1.5205 11.1122
14 0 0 36.7864 -6.5610
14 0 2 -11.8912 -3.8510
14 0 4 -29.3254 -2.6276
14 0 6 -7.4466 -3.4808
14 0 8 3.2681 -0.8915
14 0 10 -5.3849 3.3268
14 0 12 -10.5753 5.1668
14 0 14 -8.1237 5.3291
14 0 16 -2.6424 5.7391
14 0 18 3.3796 7.3785
14 0 20 5.5800 6.7432
14 2 0 42.4660 -3.0336
14 2 1 -9.0001 -2.0435
14 2 2 24.2566 -0.4626
14 2 3 -19.9532 -2.3835
14 2 4 3.9838 0.4766
14 2 5 -28.5405 -3.1748
14 2 6 -0.3486 -0.1496
14 2 7 -12.3364 -3.5436
14 2 8 1.8205 -0.9821
14 2 9 3.6690 -1.3221
14 2 10 1.7934 -1.7112
14 2 11 -2.9353 -0.3891
14 2 12 -1.9492 -2.2703
14 2 13 -19.6700 -1.7396
14 2 14 -5.6515 0.5971
14 2 15 -19.3822 -2.4780
14 2 16 -1.1539 7.1003
14 2 17 -2.7078 -4.3078
14 2 18 7.7641 10.2200
14 2 19 3.8849 -5.9942
14 2 20 8.9560 7.6671
14 4 0 -23.8061 0.0910
14 4 1 3.0804 0.2475
14 4 2 1.0042 -0.6489
14 4 3 -5.5023 -1.5347
14 4 4 -0.0836 1.0330
14 4 5 -15.0956 -0.7986
14 4 6 -19.0867 2.0513
14 4 7 -5.9568 -0.2043
14 4 8 -17.9267 0.9860
14 4 9 7.1224 -0.2714
14 4 10 4.1301 1.6075
14 4 11 4.2511 -2.3577
14 4 12 11.8739 2.2435
14 4 13 -3.1733 -5.7785
14 4 14 -4.4073 -0.4140
14 4 15 -2.1791 -4.3208
14 4 16 -13.6207 -3.7641
14 4 17 -1.2727 1.2076
14 4 18 -3.4898 -6.2040
14 6 0 -17.5198 0.2386
14 6 1 -20.1701 1.2777
14 6 2 1.9801 -0.8222
14 6 3 -8.3120 0.0227
14 6 4 14.3326 -1.4823
14 6 5 6.6649 -0.0833
14 6 6 8.2323 -2.4108
14 6 7 5.6710 -0.1062
14 6 8 -8.8629 -3.1717
14 6 9 -6.0942 -2.1173
14 6 10 -14.9498 -3.0758
14 6 11 -12.0445 -1.9235
14 6 12 -2.4808 -3.8371
14 6 13 -0.0301 0.5982
14 6 14 10.1955 -1.2283
14 6 15 11.3273 0.2061
14 6 16 13.1481 8.8174
14 8 0 -4.9534 -1.7206
14 8 1 -2.3824 -0.2329
14 8 2 -2.8556 -0.2275
14 8 3 8.8982 -0.0256
14 8 4 10.8487 2.6296
14 8 5 11.8491 0.5105
14 8 6 17.7767 1.0380
14 8 7 1.6537 1.6841
14 8 8 6.6863 -3.4339
14 8 9 -5.3649 1.5092
14 8 10 -6.6500 -5.2494
14 8 11 -4.0465 0.6509
14 8 12 -6.5216 -4.8167
14 8 13 -0.2601 -0.4837
14 8 14 0.2380 -2.8180
14 8 15 -0.7590 -2.8190
14 10 0 7.2308 0.3736
14 10 1 5.9986 3.0233
14 10 2 2.1880 2.2795
14 10 3 -1.3837 5.3665
14 10 4 -3.0701 4.0256
14 10 5 -13.4429 3.7527
14 10 6 -0.0463 4.6489
14 10 7 -10.2688 0.2070
14 10 8 7.9677 7.9563
14 10 9 2.1137 -1.5306
14 10 10 7.6878 9.9035
14 10 11 4.1787 -1.4473
14 12 0 3.2444 3.2880
14 12 1 7.6747 12.3900
14 12 2 -2.8105 5.3515
14 12 3 8.7952 9.9509
14 12 4 -6.4712 6.6137
14 12 5 5.8844 -0.9260
15 1 0 4.4225 -1.4600
15 1 1 -19.6838 2.6900
15 1 2 15.6628 0.8218
15 1 3 -5.1604 3.2945
15 1 4 -10.1194 4.8434
15 1 5 -6.0786 4.8638
15 1 6 -27.1876 5.2758
15 1 7 -9.3711 4.5766
15 1 8 -18.2653 1.2402
15 1 9 0.1848 3.3354
15 1 10 -8.2841 -2.2962
15 1 11 14.9156 1.8394
15 1 12 -4.0059 -3.8111
15 1 13 17.0920 -1.4038
15 1 14 2.8004 -2.8933
15 1 15 4.0783 -1.8302
15 1 16 7.7592 3.2160
15 1 17 -4.6607 2.3662
15 1 18 5.9725 11.0260
15 1 19 0.6926 4.1885
15 1 20 0.4122 11.9884
15 3 0 -14.4225 0.2963
15 3 1 8.3134 1.0967
15 3 2 -13.3907 1.5745
15 3 3 21.2956 -0.5002
15 3 4 0.7895 -0.0337
15 3 5 4.7683 -1.0465
15 3 6 4.2435 -1.5659
15 3 7 -15.6768 -0.3536
15 3 8 -5.5392 -1.3717
15 3 9 -11.6174 1.9006
15 3 10 -9.9582 0.8582
15 3 11 6.4913 5.4414
15 3 12 0.1627 3.1745
15 3 13 14.5800 5.1507
15 3 14 8.2633 0.1856
15 3 15 9.8449 2.4804
15 3 16 3.4478 -6.8602
15 3 17 7.1602 5.1711
15 3 18 -0.4998 -10.6739
15 3 19 9.9218 10.0772
15 5 0 -13.6009 0.2907
15 5 1 -12.1915 -0.0531
15 5 2 -15.9025 -0.6852
15 5 3 -15.6214 1.7492
15 5 4 6.5621 -2.1538
15 5 5 -13.0974 1.1428
15 5 6 21.9221 -1.2682
15 5 7 -7.0483 1.4820
15 5 8 17.8112 -1.1205
15 5 9 3.6061 2.7921
15 5 10 8.3804 -1.3700
15 5 11 0.2475 4.6004
15 5 12 6.1278 1.2990
15 5 13 -23.6651 4.6666
15 5 14 2.4720 3.6343
15 5 15 -39.6530 -0.8904
15 5 16 -7.7576 4.5182
15 7 0 8.4493 -1.9927
15 7 1 1.9487 1.2764
15 7 2 -7.2415 -0.6785
15 7 3 -13.8260 1.7188
15 7 4 -13.5076 0.0665
15 7 5 -3.9489 -1.3284
15 7 6 -0.9577 -0.8444
15 7 7 12.3967 -1.1239
15 7 8 10.3187 -2.9856
15 7 9 13.1221 0.4369
15 7 10 4.2086 -2.0948
15 7 11 1.8138 -2.7735
15 7 12 -4.0599 1.8738
15 7 13 -3.1535 -5.7205
15 7 14 -0.5625 0.7931
15 7 15 5.9378 -2.7776
15 9 0 -1.5233 0.1459
15 9 1 -2.0946 -0.9326
15 9 2 1.6721 0.7101
15 9 3 6.0627 -3.0900
15 9 4 0.9760 2.6859
15 9 5 13.6795 -1.9495
15 9 6 1.3266 4.5532
15 9 7 7.8244 -0.2759
15 9 8 2.1938 3.9760
15 9 9 -3.3043 -0.1114
15 9 10 2.6414 4.4602
15 9 11 -7.3198 -0.3209
15 9 12 -0.1781 7.0389
15 11 0 -2.8637 -0.1230
15 11 1 -4.0612 -1.4860
15 11 2 3.8324 -0.1989
15 11 3 3.9715 -5.1329
15 11 4 3.9955 1.4598
15 11 5 0.7167 -10.6544
15 11 6 -2.2267 -1.7952
15 11 7 -9.2928 -12.9902
16 0 0 -26.9786 12.7575
16 0 2 -8.0281 2.7590
16 0 4 5.9043 -6.7785
16 0 6 -8.6647 -7.0439
16 0 8 -15.9045 -3.4840
16 0 10 -4.0538 -0.4987
16 0 12 1.7955 2.5255
16 0 14 -0.9006 3.9072
16 0 16 0.4831 2.1862
16 0 18 1.8266 -1.7918
16 2 0 -36.2996 -3.1718
16 2 1 3.6946 -0.7568
16 2 2 -36.2823 -2.8375
16 2 3 17.1518 -0.4996
16 2 4 -17.8982 -0.5946
16 2 5 32.5150 -0.4736
16 2 6 -3.8537 1.0630
16 2 7 23.2756 -0.4083
16 2 8 5.3201 -0.3325
16 2 9 3.7764 -3.1205
16 2 10 9.8421 -3.0556
16 2 11 -3.6352 -4.2092
16 2 12 5.4352 -2.9432
16 2 13 4.3415 -0.3033
16 2 14 -0.7476 -3.2347
16 2 15 12.1555 4.8912
16 2 16 -2.7018 -8.4912
16 2 17 7.1139 11.3848
16 2 18 -3.5791 -12.2212
16 4 0 35.5995 0.3569
16 4 1 -12.8964 1.3996
16 4 2 20.8936 0.7667
16 4 3 -10.6342 1.8496
16 4 4 13.3079 -1.2488
16 4 5 -0.6045 -0.1230
16 4 6 22.0947 -2.3663
16 4 7 -6.7474 -0.5150
16 4 8 21.2125 0.9042
16 4 9 -20.8002 2.0151
16 4 10 1.7235 3.0725
16 4 11 -18.9763 6.0515
16 4 12 -10.0859 2.5886
16 4 13 -7.7695 9.7136
16 4 14 1.6153 3.5014
16 4 15 -4.5616 6.4106
16 4 16 11.8090 4.5556
16 6 0 20.1873 -0.9599
16 6 1 15.6851 -0.9123
16 6 2 12.2859 0.3339
16 6 3 17.0507 0.9800
16 6 4 -5.4445 1.9055
16 6 5 3.6669 2.3560
16 6 6 -13.8482 2.8066
16 6 7 -5.0155 2.2296
16 6 8 -6.3143 2.5377
16 6 9 -0.7315 3.6588
16 6 10 1.9429 -0.3086
16 6 11 10.1197 3.2655
16 6 12 -1.1032 -1.9189
16 6 13 8.9438 0.0885
16 6 14 -6.3598 -1.4327
16 8 0 -4.7127 1.8708
16 8 1 11.1447 -0.4296
16 8 2 3.4995 -1.0396
16 8 3 -4.1148 -0.0478
16 8 4 -4.0872 -3.9875
16 8 5 -17.9820 -0.2238
16 8 6 -11.2776 -2.4268
16 8 7 -9.3875 -1.9027
16 8 8 -4.0709 3.7878
16 8 9 6.0888 -1.3407
16 8 10 6.1639 9.5804
16 8 11 8.6504 0.2591
16 8 12 8.0267 12.5950
16 8 13 1.3251 -0.8792
16 10 0 2.6011 2.4571
16 10 1 -3.4701 0.1957
16 10 2 3.1307 -1.0973
16 10 3 -4.2129 -6.8096
16 10 4 2.2287 -7.4094
16 10 5 3.6453 -8.8587
16 10 6 0.6778 -9.3097
16 10 7 7.7514 -4.6589
16 10 9 2.3238 0.5550
17 1 0 5.4474 2.2637
17 1 1 14.2817 3.8768
17 1 2 -7.6701 5.1695
17 1 3 -5.7879 -0.2302
17 1 4 4.6868 4.6107
17 1 5 -7.9495 -2.8146
17 1 6 17.4356 4.0591
17 1 7 1.3028 0.2425
17 1 8 9.7885 5.6744
17 1 9 4.6544 5.3160
17 1 10 4.7803 4.0893
17 1 11 0.0123 6.5882
17 1 12 10.5792 -0.4301
17 1 13 -4.4424 6.6622
17 1 14 7.4391 -3.2837
17 1 15 -1.5457 5.0574
17 1 16 -3.9327 -8.5706
17 1 17 3.2459 -0.8734
17 1 18 -6.5801 -18.0853
17 3 0 5.6307 -0.0155
17 3 1 3.0834 -1.7967
17 3 2 18.7647 -2.5514
17 3 3 -13.6011 0.9320
17 3 4 12.0753 -2.4158
17 3 5 -4.9629 1.7962
17 3 6 3.2986 -1.3193
17 3 7 14.9916 0.2619
17 3 8 3.5016 -0.7344
17 3 9 17.2860 -2.2999
17 3 10 7.1528 -1.6516
17 3 11 3.4911 -5.6165
17 3 12 3.0832 -3.0355
17 3 13 -7.9316 -4.8303
17 3 14 -4.2621 1.2331
17 3 15 -8.1997 0.3877
17 3 16 -3.6586 10.1521
17 3 17 -2.2578 0.2394
17 5 0 2.1437 0.8548
17 5 1 4.6656 -0.0977
17 5 2 7.0538 0.7539
17 5 3 3.4835 -2.3795
17 5 4 -2.1448 1.2359
17 5 5 9.9717 -0.6965
17 5 6 -10.2741 -1.7143
17 5 7 17.6073 0.8562
17 5 8 -8.6490 -4.0626
17 5 9 7.7508 1.2778
17 5 10 -6.8263 -3.1236
17 5 11 -3.3929 -0.7630
17 5 12 -14.3554 -3.8076
17 5 13 8.1767 -5.1030
17 5 14 -19.6012 -5.1129
17 7 0 -11.8131 2.3403
17 7 1 -8.1622 -0.0354
17 7 2 2.2050 1.0744
17 7 3 9.3756 -0.2231
17 7 4 13.4662 1.0138
17 7 5 7.8074 1.8410
17 7 6 3.2802 4.4459
17 7 7 -7.9465 0.0250
17 7 8 -10.6484 9.1542
17 7 9 -14.6215 -4.4851
17 7 10 -6.2417 8.8385
17 7 11 -5.9098 -2.6509
17 7 12 5.7945 0.8041
17 9 0 0.7787 -3.1644
17 9 1 -1.0395 0.2428
17 9 2 -2.2508 -1.0258
17 9 3 5.2340 3.2447
17 9 4 -1.0345 0.2857
17 9 5 2.3518 5.8649
17 9 6 -2.7704 -1.4123
17 9 7 -2.2316 6.9603
17 9 8 -3.3828 -4.1380
17 9 9 -0.9973 6.8585
17 9 10 -4.3322 -7.1176
17 11 0 2.2260 -1.1212
17 11 1 10.8358 -4.3307
17 11 2 -0.4619 -2.0653
17 11 3 2.2236 -0.8748
17 11 4 -3.4630 -6.6643
18 0 0 21.3563 -12.2333
18 0 2 20.4264 -8.6020
18 0 4 5.2903 -1.8742
18 0 6 5.1060 -1.5853
18 0 8 3.2826 -3.9282
18 0 10 -13.4106 -3.9548
18 0 12 -18.7454 -4.2583
18 0 14 -5.2060 -4.4762
18 0 16 3.2047 -2.1512
18 2 0 11.0219 3.1867
18 2 1 7.3450 -3.8743
18 2 2 13.2105 2.8219
18 2 3 2.7196 0.2381
18 2 4 9.8808 2.0813
18 2 5 -16.1909 3.8089
18 2 6 13.4250 0.3000
18 2 7 -19.9339 2.7729
18 2 8 12.9292 0.9233
18 2 9 -11.4330 0.3353
18 2 10 0.7384 4.0273
18 2 11 -4.1559 -3.6572
18 2 12 -6.8405 2.0225
18 2 13 -2.6699 -9.5106
18 2 14 -3.4902 -2.7861
18 2 15 -5.9552 -11.0515
18 2 16 -0.7469 1.0239
18 4 0 -21.7858 1.4635
18 4 1 16.3422 0.9551
18 4 2 -12.4466 0.6638
18 4 3 17.8076 -0.8899
18 4 4 -9.4164 0.8095
18 4 5 2.2635 1.5389
18 4 6 -23.5879 1.2876
18 4 7 4.1673 2.5195
18 4 8 -29.7567 -1.7313
18 4 9 23.8728 -1.2353
18 4 10 -10.7151 -3.4999
18 4 11 29.6204 -6.8551
18 4 12 12.7285 -1.8863
18 4 13 20.0268 -13.3768
18 4 14 13.6243 -1.9865
18 6 0 -5.3240 -1.7692
18 6 1 -14.1627 0.1293
18 6 2 -9.5372 -0.9890
18 6 3 -16.3568 -0.6867
18 6 4 0.7327 1.1433
18 6 5 -0.7823 -0.7265
18 6 6 13.0146 3.1970
18 6 7 18.4865 -0.2446
18 6 8 12.0263 2.9450
18 6 9 22.1689 -2.9357
18 6 10 3.0973 2.6913
18 6 11 3.6788 -3.5432
18 6 12 -0.2752 1.4394
18 8 0 8.1838 -1.5029
18 8 1 -14.1223 -1.3199
18 8 2 -7.1498 2.0397
18 8 3 -11.4625 -3.3907
18 8 4 -6.9296 1.7340
18 8 5 2.9817 -3.8511
18 8 6 2.0218 -3.7541
18 8 7 4.7940 0.5719
18 8 8 2.0344 -10.5596
18 8 9 -4.5769 3.4850
18 8 10 -1.1496 -13.1335
18 10 0 -2.6862 0.2216
18 10 1 -0.8068 1.5932
18 10 2 -1.8033 0.2418
18 10 3 0.1094 12.7614
18 10 4 3.4375 9.2241
18 10 5 -0.8050 17.1565
18 10 6 4.7773 17.1765
19 1 0 -3.9311 3.4115
19 1 1 -5.2824 0.8384
19 1 2 3.2581 0.1154
19 1 3 5.6364 -2.4120
19 1 4 -5.5373 -0.0631
19 1 5 -1.3113 -2.3625
19 1 6 -15.5761 0.9124
19 1 7 -17.6650 -2.7358
19 1 8 -2.8977 -0.7167
19 1 9 -22.1214 -4.0251
19 1 10 10.0788 2.8796
19 1 11 -14.3429 -2.1261
19 1 12 1.6892 11.7701
19 1 13 -4.8423 -1.0980
19 1 14 -7.0589 11.6745
19 1 15 -1.3477 -2.9057
19 1 16 -1.2030 3.4747
19 3 0 15.2145 -4.1683
19 3 1 -28.6472 -0.4177
19 3 2 0.4795 -0.6180
19 3 3 -3.8585 -1.1312
19 3 4 -3.8402 0.1784
19 3 5 11.0932 -1.9980
19 3 6 -4.6999 -0.6820
19 3 7 4.2225 -2.8381
19 3 8 -7.9976 -2.6779
19 3 9 -3.3534 -4.4388
19 3 10 -12.4831 -2.6397
19 3 11 -4.7777 -3.2122
19 3 12 -10.7820 2.3301
19 3 13 -4.7053 -0.5792
19 3 14 -2.6032 4.9550
19 5 0 -6.5730 2.2426
19 5 1 11.6115 1.9580
19 5 2 -14.6463 0.1595
19 5 3 21.2354 1.4437
19 5 4 -10.4840 -3.0476
19 5 5 8.0866 -2.0995
19 5 6 -2.5842 -1.4403
19 5 7 -20.3976 -1.4994
19 5 8 0.3065 2.4612
19 5 9 -20.0258 1.1195
19 5 10 1.7051 3.0620
19 5 11 5.8368 3.6274
19 5 12 9.4188 3.3109
19 7 0 7.7365 0.4523
19 7 1 16.5328 -0.7691
19 7 2 8.9431 1.8059
19 7 3 1.1311 1.3748
19 7 4 0.0465 3.2642
19 7 5 -9.1023 0.1549
19 7 6 1.2596 0.7043
19 7 7 -5.1725 -0.3171
19 7 8 8.5038 -5.5387
19 7 9 2.0869 1.0234
19 7 10 3.7755 -9.0952
19 9 0 -1.3706 1.0897
19 9 1 3.1438 0.0306
19 9 2 -0.0127 -1.3006
19 9 3 -1.7992 -3.2029
19 9 4 -5.0965 -3.8179
19 9 5 -3.3140 -8.4393
19 9 6 -3.3826 -3.1517
20 0 0 -12.5360 -5.7429
20 0 2 -7.7069 -0.3731
20 0 4 10.9229 -1.4465
20 0 6 13.5120 -1.7015
20 0 8 5.0404 -2.3714
20 0 10 9.4605 -6.2634
20 0 12 15.0000 -5.9872
20 0 14 6.6937 0.2621
20 2 0 -5.9259 4.9516
20 2 1 -8.2301 6.6272
20 2 2 -6.5513 0.8254
20 2 3 -15.3141 5.5573
20 2 4 -8.0682 -2.6462
20 2 5 1.2762 1.4680
20 2 6 -19.6104 0.7465
20 2 7 13.7643 -0.7640
20 2 8 -25.6014 4.8403
20 2 9 15.5651 -1.7040
20 2 10 -9.5586 -0.1827
20 2 11 13.5805 -0.6795
20 2 12 9.0744 -5.0847
20 2 13 7.0615 3.1496
20 2 14 9.1745 -1.3784
20 4 0 0.7463 -1.2787
20 4 1 3.1008 1.7632
20 4 2 -5.9190 2.1052
20 4 3 -6.9818 4.1441
20 4 4 -6.1639 4.3634
20 4 5 2.8809 -1.4697
20 4 6 13.5234 2.9521
20 4 7 1.2061 -4.9308
20 4 8 29.7392 2.3017
20 4 9 -22.3047 1.1478
20 4 10 18.7966 1.1932
20 4 11 -30.5616 9.4481
20 6 0 -2.1889 1.4929
20 6 1 -0.7814 0.0963
20 6 2 4.5901 0.7310
20 6 3 5.6161 0.5791
20 6 4 3.7523 -1.8636
20 6 5 7.4384 -2.4891
20 6 6 -3.7818 -3.1192
20 6 7 -4.3929 -7.0365
20 6 8 -6.1345 0.4357
20 6 9 -22.1585 -4.2544
20 6 10 -0.2980 4.0181
20 8 0 -4.2214 0.7245
20 8 1 11.2995 2.4492
20 8 2 2.3105 -2.9542
20 8 3 16.8456 4.4662
20 8 4 3.5223 -5.2544
20 8 5 4.9466 7.1119
20 8 6 -3.9137 -2.5664
20 8 8 -4.6564 2.3758
20 10 0 -1.6703 2.0025
20 10 1 -5.2974 0.1359
20 10 2 3.7877 5.1363
21 1 0 -3.3835 -0.5732
21 1 1 12.0938 -3.5114
21 1 2 -10.2865 0.0046
21 1 3 -0.5450 -0.1528
21 1 4 -1.4605 -2.9360
21 1 5 -2.7948 -0.0653
21 1 6 13.9935 -5.4619
21 1 7 8.2546 0.4726
21 1 8 6.8685 3.6166
21 1 9 13.3679 3.6828
21 1 10 -11.2590 12.6613
21 1 11 9.8868 4.9045
21 1 12 -10.3475 6.2879
21 1 13 6.0751 5.1766
21 3 0 -16.9788 -3.7666
21 3 1 25.0247 -2.8291
21 3 2 -10.9151 -2.3638
21 3 3 15.5490 -1.4443
21 3 4 -4.5489 1.5888
21 3 5 0.8020 1.3285
21 3 6 1.0333 2.6842
21 3 7 2.1471 3.1655
21 3 8 5.3524 2.2132
21 3 9 4.5946 5.8856
21 3 10 8.3075 0.6076
21 3 11 1.4754 6.4904
21 5 0 8.6359 -1.3302
21 5 1 -21.5920 -5.0188
21 5 2 16.5363 -1.3428
21 5 3 -52.7395 -5.1400
21 5 4 9.3533 0.0288
21 5 5 -60.1142 1.2350
21 5 6 -1.8688 -0.7400
21 5 7 -22.0137 0.9434
21 5 8 -4.3175 -2.5225
21 5 9 7.7556 -3.3099
21 5 10 0.1930 -1.5130
21 7 0 -3.2309 -2.9691
21 7 1 -8.5615 -0.2876
21 7 2 -4.3547 -3.1526
21 7 3 0.7398 0.4398
21 7 4 4.9211 -2.9035
21 7 5 12.7873 4.8845
21 7 6 10.1380 -2.5483
21 7 7 18.0457 7.2761
21 7 8 3.8708 -0.3730
21 9 0 3.5026 -2.4955
21 9 1 -1.7180 -3.0278
21 9 2 -0.8389 -2.9818
21 9 3 -5.5471 -4.9492
21 9 4 1.8649 0.0492
22 0 0 5.8103 -0.2003
22 0 2 11.5123 0.4068
22 0 4 2.6360 5.3396
22 0 6 -0.9427 3.9045
22 0 8 5.3588 -2.5728
22 0 10 3.0812 -2.4196
22 0 12 -3.7936 1.0329
22 2 0 21.4982 -0.5601
22 2 1 -8.3545 0.0607
22 2 2 7.7874 -3.1005
22 2 3 9.5864 -1.8082
22 2 4 -9.6455 0.3929
22 2 5 6.2279 2.0316
22 2 6 -6.8647 -0.2645
22 2 7 -1.6820 8.8800
22 2 8 8.8756 -6.0508
22 2 9 -4.3785 15.6575
22 2 10 9.9645 -1.6210
22 2 11 -7.0282 16.7171
22 4 0 -4.9634 1.4174
22 4 1 -1.7575 -6.2661
22 4 2 18.6858 1.1810
22 4 3 9.3084 -9.1517
22 4 4 43.4446 -1.4753
22 4 5 -1.2102 0.5163
22 4 6 36.5920 -3.3631
22 4 7 -12.0280 9.8141
22 4 8 7.4130 -5.3669
22 4 9 5.0742 3.7572
22 6 0 2.2616 -0.5247
22 6 1 -1.7868 0.2393
22 6 2 -13.5265 -5.0415
22 6 3 -3.6992 -6.5570
22 6 4 -26.4585 -4.0613
22 6 5 -10.4590 -7.1013
22 6 6 -27.9118 0.6823
22 6 7 -10.8075 2.0666
22 6 8 -17.9417 1.0596
22 8 0 -2.5703 0.0049
22 8 1 0.6988 1.3887
22 8 2 2.5758 6.0996
22 8 3 -3.9811 0.6002
22 8 4 3.9048 11.5535
22 8 5 -0.3777 -2.6516
23 1 0 1.5640 -1.3761
23 1 1 -1.4787 -6.2948
23 1 2 12.3423 -7.2064
23 1 3 15.0161 -2.8527
23 1 4 8.9501 -9.0974
23 1 5 22.0163 -0.3135
23 1 6 -8.1930 -3.9291
23 1 7 9.0477 -1.5223
23 1 8 -10.9275 -10.0478
23 1 9 -4.1135 -5.1214
23 3 0 -2.1136 2.7859
23 3 1 -18.1755 2.3860
23 3 2 1.2519 3.5922
23 3 3 -32.9558 -3.4919
23 3 4 0.9974 -0.3927
23 3 5 -26.0997 -8.6472
23 3 6 -0.8283 -1.1375
23 3 7 -19.1359 -8.8547
23 5 0 17.1795 -0.6663
23 5 1 19.3964 11.5387
23 5 2 3.1283 -0.1634
23 5 3 67.4002 17.1905
23 5 4 -3.0467 0.6002
23 5 5 103.1207 5.4549
23 5 6 -0.2304 2.9306
23 5 7 74.1469 -2.6042
23 7 0 -3.6771 4.7381
23 7 1 -7.9934 0.0536
23 7 3 -14.0559 0.5956
23 7 4 0.8063 1.4741
24 0 0 -11.2014 8.4596
24 0 2 -24.4011 11.1744
24 0 4 -17.6985 4.1134
24 0 6 -6.7025 -0.2664
24 2 0 -13.0130 -0.1885
24 2 1 16.8147 1.5341
24 2 2 -3.3858 8.4392
24 2 3 0.3799 -1.0728
24 2 4 13.3640 6.3936
24 2 5 -4.3856 -5.6491
24 2 6 13.0583 3.2592
24 4 0 8.8113 -3.3277
24 4 1 -6.3762 6.2639
24 4 2 -10.4818 -7.4379
24 4 3 -13.4196 19.1729
24 4 4 -38.1243 -7.2494
24 4 5 -5.9251 13.2393
24 4 6 -42.7748 -4.1736
24 6 0 -1.1356 0.9111
24 6 1 11.4952 -7.7760
24 6 2 12.7984 7.6396
24 6 3 -1.7043 -0.0122
24 6 4 21.5360 8.5477
24 8 0 2.3696 -0.2350
25 1 0 6.5267 -4.1387
25 1 1 -3.4814 5.3642
25 1 2 -4.3066 4.2833
25 1 3 -8.6751 4.1318
25 1 4 -8.1400 13.0481
25 1 5 -12.8261 -2.3182
25 3 0 6.0762 2.7461
25 3 1 10.1433 -2.9366
25 3 2 -0.1880 -4.3862
25 3 3 17.0625 1.8406
25 3 4 -1.1266 -3.2551
25 3 5 8.5510 11.0160
25 5 0 -28.0487 5.4401
25 5 1 3.1355 -6.7875
25 5 2 -14.5102 11.0796
25 5 3 -16.6115 -21.0780
25 7 0 0.3724 -7.1488
26 0 0 -4.5931 10.2097
26 0 2 6.8395 -5.0858
26 0 4 6.1598 -3.8351
26 0 6 2.0369 6.7908
26 2 0 7.5796 -0.5820
26 2 1 -9.0994 1.6906
26 2 2 14.9597 -5.9987
26 2 3 3.2878 2.2761
26 2 4 6.8378 -6.3530
26 2 5 9.7648 3.7836
26 4 0 -15.5140 -1.3564
26 6 0 8.2737 -0.1182
27 1 0 -5.9558 -2.3181
27 1 1 -8.3228 0.6284
27 1 3 -5.5682 -2.9062
27 1 4 1.5903 -10.2262
27 3 0 2.5611 -0.3485
27 3 1 2.8937 6.7118
28 0 0 15.3317 -23.6649
28 0 2 3.6485 -6.3510
28 2 0 -7.0130 -1.2793
0 0 0 0.0 0.0
;
_shelx_fab_checksum                3779
_olex2_submission_special_instructions  'No special instructions were received'
_vrf_PLAT934_Ho-U6
;
PROBLEM: Number of (Iobs-Icalc)/Sigma(W) > 10 Outliers .. 10 Check
RESPONSE: ...
;
# start Validation Reply Form
_vrf_PLAT975_Ho-U6
;
PROBLEM: Check Calcd Resid. Dens. 0.80A From O2A 3.34 eA-3
RESPONSE: High residual q-peaks near heavy atoms is common
;
_vrf_PLAT976_Ho-U6
;
PROBLEM: Check Calcd Resid. Dens. 0.54A From O10 -2.23 eA-3
RESPONSE: High residual q-peaks near heavy atoms is common
;
