data_nh4-th6-tetra
_audit_creation_date               2021-09-09
_audit_creation_method
;
Olex2 1.3
(compiled 2020.11.12 svn.r5f609507 for OlexSys, GUI svn.r6272)
;
_shelx_SHELXL_version_number       '2018/3'
_audit_contact_author_address      ?
_audit_contact_author_email        ?
_audit_contact_author_name         ''
_audit_contact_author_phone        ?
_publ_contact_author_id_orcid      ?
_publ_section_references
;
Dolomanov, O.V., Bourhis, L.J., Gildea, R.J, Howard, J.A.K. & Puschmann, H.
 (2009), J. Appl. Cryst. 42, 339-341.

Sheldrick, G.M. (2015). Acta Cryst. C71, 3-8.
;
_chemical_name_common              ?
_chemical_name_systematic          ?
_chemical_formula_moiety           'O122 S24 Th12, 16(O), 24(N)'
_chemical_formula_sum              'N24 O138 S24 Th12'
_chemical_formula_weight           6098.16
_chemical_melting_point            ?
loop_
  _atom_type_symbol
  _atom_type_description
  _atom_type_scat_dispersion_real
  _atom_type_scat_dispersion_imag
  _atom_type_scat_source
 'N' 'N' 0.0311 0.0180 'International Tables Vol C Tables 4.2.6.8 and 6.1.1.4'
 'O' 'O' 0.0492 0.0322 'International Tables Vol C Tables 4.2.6.8 and 6.1.1.4'
 'S' 'S' 0.3331 0.5567 'International Tables Vol C Tables 4.2.6.8 and 6.1.1.4'
 'Th' 'Th' -4.1491 12.3296
 'International Tables Vol C Tables 4.2.6.8 and 6.1.1.4'

_shelx_space_group_comment
;
The symmetry employed for this shelxl refinement is uniquely defined
by the following loop, which should always be used as a source of
symmetry information in preference to the above space-group names.
They are only intended as comments.
;
_space_group_crystal_system        'tetragonal'
_space_group_IT_number             139
_space_group_name_H-M_alt          'I 4/m m m'
_space_group_name_Hall             '-I 4 2'
loop_
  _space_group_symop_operation_xyz
 'x, y, z'
 '-x, -y, z'
 '-y, x, z'
 'y, -x, z'
 '-x, y, -z'
 'x, -y, -z'
 'y, x, -z'
 '-y, -x, -z'
 'x+1/2, y+1/2, z+1/2'
 '-x+1/2, -y+1/2, z+1/2'
 '-y+1/2, x+1/2, z+1/2'
 'y+1/2, -x+1/2, z+1/2'
 '-x+1/2, y+1/2, -z+1/2'
 'x+1/2, -y+1/2, -z+1/2'
 'y+1/2, x+1/2, -z+1/2'
 '-y+1/2, -x+1/2, -z+1/2'
 '-x, -y, -z'
 'x, y, -z'
 'y, -x, -z'
 '-y, x, -z'
 'x, -y, z'
 '-x, y, z'
 '-y, -x, z'
 'y, x, z'
 '-x+1/2, -y+1/2, -z+1/2'
 'x+1/2, y+1/2, -z+1/2'
 'y+1/2, -x+1/2, -z+1/2'
 '-y+1/2, x+1/2, -z+1/2'
 'x+1/2, -y+1/2, z+1/2'
 '-x+1/2, y+1/2, z+1/2'
 '-y+1/2, -x+1/2, z+1/2'
 'y+1/2, x+1/2, z+1/2'

# end Validation Reply Form
_cell_length_a                     16.73240(10)
_cell_length_b                     16.73240(10)
_cell_length_c                     12.17200(10)
_cell_angle_alpha                  90
_cell_angle_beta                   90
_cell_angle_gamma                  90
_cell_volume                       3407.83(5)
_cell_formula_units_Z              1
_cell_measurement_reflns_used      8131
_cell_measurement_temperature      173.00(10)
_cell_measurement_theta_max        76.3330
_cell_measurement_theta_min        3.7170
_shelx_estimated_absorpt_T_max     ?
_shelx_estimated_absorpt_T_min     ?
_exptl_absorpt_coefficient_mu      46.404
_exptl_absorpt_correction_T_max    0.545
_exptl_absorpt_correction_T_min    0.111
_exptl_absorpt_correction_type     analytical
_exptl_absorpt_process_details
;
CrysAlisPro 1.171.40.53 (Rigaku Oxford Diffraction, 2019)
Analytical numeric absorption correction using a multifaceted crystal
			model based on expressions derived by R.C. Clark & J.S. Reid.
(Clark, R. C. & Reid, J. S. (1995). Acta Cryst. A51, 887-897)
Spherical absorption correction
 using equivalent radius and absorption coefficient.
Empirical absorption correction using spherical harmonics,
 implemented in SCALE3 ABSPACK scaling algorithm.
;
_exptl_absorpt_special_details     ?
_exptl_crystal_colour              'clear colourless'
_exptl_crystal_colour_lustre       clear
_exptl_crystal_colour_modifier     .
_exptl_crystal_colour_primary      colourless
_exptl_crystal_density_diffrn      2.971
_exptl_crystal_density_meas        ?
_exptl_crystal_density_method      ?
_exptl_crystal_description         block
_exptl_crystal_F_000               2736
loop_
  _exptl_crystal_face_index_h
  _exptl_crystal_face_index_k
  _exptl_crystal_face_index_l
  _exptl_crystal_face_perp_dist
 -1 0 -8 0.0379
 1 0 8 0.0872
 -2 -11 0 0.0227
 2 11 0 0.0152
 10 -3 0 0.0230
 -11 1 0 0.0095

_exptl_crystal_size_max            0.131
_exptl_crystal_size_mid            0.043
_exptl_crystal_size_min            0.035
_exptl_transmission_factor_max     ?
_exptl_transmission_factor_min     ?
_diffrn_reflns_av_R_equivalents    0.0390
_diffrn_reflns_av_unetI/netI       0.0179
_diffrn_reflns_Laue_measured_fraction_full  1.000
_diffrn_reflns_Laue_measured_fraction_max  0.989
_diffrn_reflns_limit_h_max         20
_diffrn_reflns_limit_h_min         -20
_diffrn_reflns_limit_k_max         20
_diffrn_reflns_limit_k_min         -14
_diffrn_reflns_limit_l_max         14
_diffrn_reflns_limit_l_min         -15
_diffrn_reflns_number              11698
_diffrn_reflns_point_group_measured_fraction_full  1.000
_diffrn_reflns_point_group_measured_fraction_max  0.989
_diffrn_reflns_theta_full          67.684
_diffrn_reflns_theta_max           76.549
_diffrn_reflns_theta_min           3.736
_diffrn_ambient_temperature        173.00(10)
_diffrn_detector_area_resol_mean   10.0000
_diffrn_detector_type              HyPix
_diffrn_measured_fraction_theta_full  1.000
_diffrn_measured_fraction_theta_max  0.989
_diffrn_measurement_details
;
List of Runs (angles in degrees, time in seconds):

  # Type    Start    End  Width  t~exp~   \w     \q     \k     \f   Frames
--------------------------------------------------------------------------
  1  \w     89.00 116.00   0.50    0.21    --   47.52  77.00   0.00   54
  2  \w    113.00 178.00   0.50    0.83    --  106.29  15.00-150.00  130
  3  \w     36.00  69.00   0.50    0.83    --  106.29 -61.00   0.00   66
  4  \w     39.00  71.00   0.50    0.83    --  106.29 -61.00  30.00   64
  5  \w     42.00  70.00   0.50    0.83    --  106.29 -61.00 120.00   56
  6  \w     51.00  99.00   0.50    0.83    --  106.29 -94.00-180.00   96
  7  \w     54.00 100.00   0.50    0.83    --  106.29 -94.00-150.00   92
  8  \w     46.00  99.00   0.50    0.21    --   47.52-132.00-144.00  106
  9  \w     35.00  62.00   0.50    0.83    --  106.29-117.00 116.00   54
 10  \w     68.00  98.00   0.50    0.83    --  106.29-117.00 116.00   60
 11  \w    -46.00 -20.00   0.50    0.83    --  -91.75  45.00  90.00   52
 12  \w    -48.00 -22.00   0.50    0.83    --  -91.75  45.00 150.00   52
 13  \w    -49.00 -20.00   0.50    0.83    --  -91.75  45.00  30.00   58
 14  \w    -49.00 -23.00   0.50    0.83    --  -91.75  45.00   0.00   52
 15  \w    -49.00 -20.00   0.50    0.83    --  -91.75  45.00-150.00   58
 16  \w    -45.00 -20.00   0.50    0.83    --  -91.75  45.00 -90.00   50
 17  \w    -81.00 -20.00   0.50    0.83    --  -91.75 136.00 102.00  122
 18  \w    -81.00 -55.00   0.50    0.83    --  -91.75 117.00-156.00   52
 19  \w   -114.00 -89.00   0.50    0.21    --  -47.52 -77.00 -60.00   50
 20  \w   -119.00 -93.00   0.50    0.21    --  -47.52 -77.00 -30.00   52
 21  \w   -162.00 -94.00   0.50    0.83    --  -91.75 -45.00 120.00  136
 22  \w   -163.00-104.00   0.50    0.83    --  -91.75 -94.00  90.00  118
 23  \w   -120.00 -95.00   0.50    0.21    --  -47.52-125.00  30.00   50
 24  \w   -120.00 -75.00   0.50    0.21    --  -47.52-160.00 -35.00   90
 25  \w   -117.00 -79.00   0.50    0.21    --  -47.52-125.00-180.00   76
;
_diffrn_measurement_device         'four-circle diffractometer'
_diffrn_measurement_device_type    'XtaLAB Synergy, Dualflex, HyPix'
_diffrn_measurement_method         '\w scans'
_diffrn_radiation_type             CuK\a
_diffrn_radiation_wavelength       1.54184
_diffrn_source                     ?
_reflns_Friedel_coverage           0.000
_reflns_Friedel_fraction_full      .
_reflns_Friedel_fraction_max       .
_reflns_number_gt                  1011
_reflns_number_total               1046
_reflns_special_details
;
 Reflections were merged by SHELXL according to the crystal
 class for the calculation of statistics and refinement.
 
 _reflns_Friedel_fraction is defined as the number of unique
 Friedel pairs measured divided by the number that would be
 possible theoretically, ignoring centric projections and
 systematic absences.
;
_reflns_threshold_expression       'I > 2\s(I)'
_computing_cell_refinement         'CrysAlisPro 1.171.40.53 (Rigaku OD, 2019)'
_computing_data_collection         'CrysAlisPro 1.171.40.53 (Rigaku OD, 2019)'
_computing_data_reduction          'CrysAlisPro 1.171.40.53 (Rigaku OD, 2019)'
_computing_molecular_graphics      'Olex2 1.3 (Dolomanov et al., 2009)'
_computing_publication_material    'Olex2 1.3 (Dolomanov et al., 2009)'
_computing_structure_refinement    'SHELXL 2018/3 (Sheldrick, 2015)'
_computing_structure_solution      'SHELXT 2018/2 (Sheldrick, 2018)'
_refine_diff_density_max           2.078
_refine_diff_density_min           -2.857
_refine_diff_density_rms           0.322
_refine_ls_extinction_coef         .
_refine_ls_extinction_method       none
_refine_ls_goodness_of_fit_ref     1.093
_refine_ls_hydrogen_treatment      undef
_refine_ls_matrix_type             full
_refine_ls_number_parameters       72
_refine_ls_number_reflns           1046
_refine_ls_number_restraints       0
_refine_ls_R_factor_all            0.0447
_refine_ls_R_factor_gt             0.0438
_refine_ls_restrained_S_all        1.093
_refine_ls_shift/su_max            0.000
_refine_ls_shift/su_mean           0.000
_refine_ls_structure_factor_coef   Fsqd
_refine_ls_weighting_details      
 'w=1/[\s^2^(Fo^2^)+(0.0656P)^2^+145.5992P] where P=(Fo^2^+2Fc^2^)/3'
_refine_ls_weighting_scheme        calc
_refine_ls_wR_factor_gt            0.1195
_refine_ls_wR_factor_ref           0.1202
_refine_special_details            ?
_olex2_refinement_description
;
1. Uiso/Uaniso restraints and constraints
Uanis(O7) = Uanis(O9)
Uanis(O3) = Uanis(S2) = Uanis(O4)
2. Others
 Fixed Sof: O6(0.0625) O7(0.25) O9(0.25)
;
_atom_sites_solution_hydrogens     .
_atom_sites_solution_primary       dual
_atom_sites_solution_secondary     ?
loop_
  _atom_site_label
  _atom_site_type_symbol
  _atom_site_fract_x
  _atom_site_fract_y
  _atom_site_fract_z
  _atom_site_U_iso_or_equiv
  _atom_site_adp_type
  _atom_site_occupancy
  _atom_site_site_symmetry_order
  _atom_site_calc_flag
  _atom_site_refinement_flags_posn
  _atom_site_refinement_flags_adp
  _atom_site_refinement_flags_occupancy
  _atom_site_disorder_assembly
  _atom_site_disorder_group
 Th1 Th 0.500000 0.500000 0.27475(7) 0.0198(3) Uani 1 8 d S T P . .
 Th2 Th 0.62010(3) 0.62010(3) 0.500000 0.0338(3) Uani 1 4 d S T P A .
 S1 S 0.65005(14) 0.65005(14) 0.8016(3) 0.0388(8) Uani 1 2 d S T P A .
 S2 S 0.500000 0.8076(5) 0.500000 0.114(4) Uani 1 4 d S T P A .
 O2 O 0.7306(7) 0.7306(7) 0.500000 0.111(12) Uani 1 4 d S T P . .
 O3 O 0.500000 0.8687(9) 0.5796(16) 0.114(4) Uani 1 2 d S T P . .
 O4 O 0.5717(17) 0.7583(8) 0.500000 0.114(4) Uani 1 2 d S T P . .
 O5 O 0.6619(4) 0.6619(4) 0.6827(9) 0.070(5) Uani 1 2 d S T P . .
 O6 O 0.500000 0.500000 0.029(3) 0.036(10) Uiso 0.5 8 d S . P A 2
 O7 O 0.6297(12) 0.500000 0.3766(18) 0.032(4) Uani 0.5 2 d S T P A 2
 O8 O 0.7212(8) 0.6264(13) 0.8500(14) 0.155(9) Uani 1 1 d . . . . .
 O9 O 0.5957(12) 0.500000 0.4080(18) 0.032(4) Uani 0.5 2 d S T P A 1
 O10 O 0.5893(5) 0.5893(5) 0.8247(9) 0.073(5) Uani 1 2 d S T P . .
 O1 O 0.500000 0.8362(6) 0.8430(8) 0.032(2) Uani 1 2 d S T P . .
 N1 N 0.500000 0.726(3) 1.000000 0.094(12) Uani 1 4 d S T P . .
 N2 N 0.6321(10) 0.8679(10) 0.750000 0.107(10) Uani 1 2 d S T P . .

loop_
  _atom_site_aniso_label
  _atom_site_aniso_U_11
  _atom_site_aniso_U_22
  _atom_site_aniso_U_33
  _atom_site_aniso_U_23
  _atom_site_aniso_U_13
  _atom_site_aniso_U_12
 Th1 0.0186(3) 0.0186(3) 0.0223(4) 0.000 0.000 0.000
 Th2 0.0417(3) 0.0417(3) 0.0179(4) 0.000 0.000 -0.0260(3)
 S1 0.0472(13) 0.0472(13) 0.0221(15) -0.0013(9) -0.0013(9) -0.0241(17)
 S2 0.234(12) 0.026(3) 0.082(5) 0.000 0.000 0.000
 O2 0.151(19) 0.151(19) 0.032(9) 0.000 0.000 -0.13(2)
 O3 0.234(12) 0.026(3) 0.082(5) 0.000 0.000 0.000
 O4 0.234(12) 0.026(3) 0.082(5) 0.000 0.000 0.000
 O5 0.094(8) 0.094(8) 0.022(5) -0.003(3) -0.003(3) -0.077(9)
 O7 0.022(11) 0.047(7) 0.026(10) 0.000 -0.002(7) 0.000
 O8 0.052(7) 0.27(2) 0.144(14) 0.147(15) -0.009(8) -0.020(10)
 O9 0.022(11) 0.047(7) 0.026(10) 0.000 -0.002(7) 0.000
 O10 0.099(8) 0.099(8) 0.019(5) -0.004(3) -0.004(3) -0.078(9)
 O1 0.028(4) 0.038(5) 0.030(5) -0.005(4) 0.000 0.000
 N1 0.040(13) 0.19(4) 0.050(15) 0.000 0.000 0.000
 N2 0.079(9) 0.079(9) 0.16(3) 0.041(12) 0.041(12) -0.002(12)

_geom_special_details
;
 All esds (except the esd in the dihedral angle between two l.s. planes)
 are estimated using the full covariance matrix.  The cell esds are taken
 into account individually in the estimation of esds in distances, angles
 and torsion angles; correlations between esds in cell parameters are only
 used when they are defined by crystal symmetry.  An approximate (isotropic)
 treatment of cell esds is used for estimating esds involving l.s. planes.
;
loop_
  _geom_bond_atom_site_label_1
  _geom_bond_atom_site_label_2
  _geom_bond_distance
  _geom_bond_site_symmetry_2
  _geom_bond_publ_flag
 Th1 Th2 3.9488(7) . ?
 Th1 Th2 3.9488(7) 17_666 ?
 Th1 Th2 3.9488(7) 3_655 ?
 Th1 Th2 3.9488(7) 19_566 ?
 Th1 O6 2.99(4) . ?
 Th1 O7 2.50(2) 3_655 ?
 Th1 O7 2.50(2) 4_565 ?
 Th1 O7 2.50(2) 2_665 ?
 Th1 O7 2.50(2) . ?
 Th1 O9 2.28(2) 3_655 ?
 Th1 O9 2.28(2) 2_665 ?
 Th1 O9 2.28(2) 4_565 ?
 Th1 O9 2.28(2) . ?
 Th1 O10 2.435(11) 18_556 ?
 Th1 O10 2.435(11) 17_666 ?
 Th1 O10 2.435(11) 19_566 ?
 Th1 O10 2.435(11) 20_656 ?
 Th2 Th2 4.0189(8) 3_655 ?
 Th2 Th2 4.0189(8) 19_566 ?
 Th2 O2 2.615(18) . ?
 Th2 O4 2.450(17) 7_556 ?
 Th2 O4 2.450(17) . ?
 Th2 O5 2.434(11) 18_556 ?
 Th2 O5 2.434(11) . ?
 Th2 O7 2.514(13) 20_656 ?
 Th2 O7 2.514(13) . ?
 Th2 O7 2.514(13) 18_556 ?
 Th2 O7 2.514(13) 3_655 ?
 Th2 O9 2.336(11) 3_655 ?
 Th2 O9 2.336(11) 20_656 ?
 Th2 O9 2.336(11) . ?
 Th2 O9 2.336(11) 18_556 ?
 S1 O5 1.473(11) . ?
 S1 O8 1.386(13) 24 ?
 S1 O8 1.386(13) . ?
 S1 O10 1.465(12) . ?
 S2 O3 1.409(18) . ?
 S2 O3 1.409(18) 18_556 ?
 S2 O4 1.46(3) 5_656 ?
 S2 O4 1.46(3) . ?
 O6 O6 0.70(7) 17_665 ?

loop_
  _geom_angle_atom_site_label_1
  _geom_angle_atom_site_label_2
  _geom_angle_atom_site_label_3
  _geom_angle
  _geom_angle_site_symmetry_1
  _geom_angle_site_symmetry_3
  _geom_angle_publ_flag
 Th2 Th1 Th2 92.05(2) 19_566 3_655 ?
 Th2 Th1 Th2 61.178(12) 3_655 . ?
 Th2 Th1 Th2 61.178(12) 19_566 . ?
 Th2 Th1 Th2 61.177(12) 3_655 17_666 ?
 Th2 Th1 Th2 61.177(12) 19_566 17_666 ?
 Th2 Th1 Th2 92.05(2) 17_666 . ?
 O6 Th1 Th2 133.974(10) . 17_666 ?
 O6 Th1 Th2 133.973(10) . . ?
 O6 Th1 Th2 133.974(10) . 3_655 ?
 O7 Th1 Th2 95.6(4) . 17_666 ?
 O7 Th1 Th2 38.2(3) 3_655 . ?
 O7 Th1 Th2 38.2(3) 3_655 3_655 ?
 O7 Th1 Th2 38.2(3) 2_665 17_666 ?
 O7 Th1 Th2 38.2(3) . . ?
 O7 Th1 Th2 95.6(4) 3_655 17_666 ?
 O7 Th1 Th2 38.2(3) 2_665 3_655 ?
 O7 Th1 Th2 95.6(4) 2_665 . ?
 O7 Th1 Th2 95.6(4) . 3_655 ?
 O7 Th1 Th2 38.2(3) 4_565 17_666 ?
 O7 Th1 Th2 95.6(4) 4_565 3_655 ?
 O7 Th1 Th2 95.6(4) 4_565 . ?
 O7 Th1 O6 119.7(5) 3_655 . ?
 O7 Th1 O6 119.7(5) 4_565 . ?
 O7 Th1 O6 119.7(5) 2_665 . ?
 O7 Th1 O6 119.7(5) . . ?
 O7 Th1 O7 120.5(10) 3_655 4_565 ?
 O7 Th1 O7 120.5(10) 2_665 . ?
 O7 Th1 O7 75.8(4) 2_665 4_565 ?
 O7 Th1 O7 75.8(4) 3_655 . ?
 O7 Th1 O7 75.8(4) 4_565 . ?
 O9 Th1 Th2 31.61(13) 3_655 3_655 ?
 O9 Th1 Th2 82.2(5) 2_665 19_566 ?
 O9 Th1 Th2 31.61(13) 4_565 19_566 ?
 O9 Th1 Th2 31.61(13) 2_665 3_655 ?
 O9 Th1 Th2 82.2(5) 3_655 19_566 ?
 O9 Th1 Th2 82.2(5) 4_565 . ?
 O9 Th1 Th2 82.1(5) . 3_655 ?
 O9 Th1 Th2 31.61(13) . 19_566 ?
 O9 Th1 Th2 31.61(13) . . ?
 O9 Th1 Th2 31.61(13) 2_665 17_666 ?
 O9 Th1 Th2 31.61(13) 4_565 17_666 ?
 O9 Th1 Th2 31.61(13) 3_655 . ?
 O9 Th1 Th2 82.2(5) 4_565 3_655 ?
 O9 Th1 Th2 82.2(5) 2_665 . ?
 O9 Th1 Th2 82.1(5) . 17_666 ?
 O9 Th1 Th2 82.2(5) 3_655 17_666 ?
 O9 Th1 O7 15.6(6) 2_665 2_665 ?
 O9 Th1 O7 69.3(4) 2_665 4_565 ?
 O9 Th1 O7 104.9(8) 4_565 3_655 ?
 O9 Th1 O7 69.3(4) 2_665 3_655 ?
 O9 Th1 O7 69.3(4) 4_565 2_665 ?
 O9 Th1 O7 15.6(6) 3_655 3_655 ?
 O9 Th1 O7 15.6(6) 4_565 4_565 ?
 O9 Th1 O7 69.3(4) . 4_565 ?
 O9 Th1 O7 69.3(4) . 3_655 ?
 O9 Th1 O7 69.3(4) 3_655 2_665 ?
 O9 Th1 O7 104.9(8) 3_655 4_565 ?
 O9 Th1 O7 104.9(8) . 2_665 ?
 O9 Th1 O9 59.6(6) . 3_655 ?
 O9 Th1 O9 59.6(6) 3_655 2_665 ?
 O9 Th1 O9 89.3(11) . 2_665 ?
 O9 Th1 O9 89.3(11) 3_655 4_565 ?
 O9 Th1 O9 59.6(6) 4_565 2_665 ?
 O9 Th1 O9 59.6(6) . 4_565 ?
 O9 Th1 O10 141.70(18) 2_665 19_566 ?
 O9 Th1 O10 85.6(5) 2_665 17_666 ?
 O9 Th1 O10 85.6(5) 3_655 18_556 ?
 O9 Th1 O10 141.70(18) 2_665 18_556 ?
 O9 Th1 O10 85.6(5) . 18_556 ?
 O9 Th1 O10 85.6(5) . 19_566 ?
 O9 Th1 O10 141.70(18) 4_565 20_656 ?
 O9 Th1 O10 85.6(5) 3_655 20_656 ?
 O9 Th1 O10 85.6(5) 2_665 20_656 ?
 O9 Th1 O10 141.70(18) 3_655 17_666 ?
 O9 Th1 O10 141.70(18) 3_655 19_566 ?
 O9 Th1 O10 85.6(5) 4_565 19_566 ?
 O9 Th1 O10 141.70(18) 4_565 18_556 ?
 O9 Th1 O10 85.6(5) 4_565 17_666 ?
 O9 Th1 O10 141.70(18) . 20_656 ?
 O9 Th1 O10 141.70(18) . 17_666 ?
 O10 Th1 Th2 110.19(17) 17_666 3_655 ?
 O10 Th1 Th2 110.19(17) 17_666 19_566 ?
 O10 Th1 Th2 165.8(3) 18_556 17_666 ?
 O10 Th1 Th2 73.8(3) 19_566 19_566 ?
 O10 Th1 Th2 73.8(3) 17_666 17_666 ?
 O10 Th1 Th2 110.18(17) 20_656 . ?
 O10 Th1 Th2 110.19(17) 19_566 17_666 ?
 O10 Th1 Th2 110.19(17) 18_556 3_655 ?
 O10 Th1 Th2 73.8(3) 18_556 . ?
 O10 Th1 Th2 165.8(3) 17_666 . ?
 O10 Th1 Th2 110.18(17) 19_566 . ?
 O10 Th1 Th2 73.8(3) 20_656 3_655 ?
 O10 Th1 Th2 110.19(17) 20_656 17_666 ?
 O10 Th1 Th2 110.19(17) 18_556 19_566 ?
 O10 Th1 Th2 165.8(3) 19_566 3_655 ?
 O10 Th1 Th2 165.8(3) 20_656 19_566 ?
 O10 Th1 O6 60.2(3) 19_566 . ?
 O10 Th1 O6 60.2(3) 17_666 . ?
 O10 Th1 O6 60.2(3) 20_656 . ?
 O10 Th1 O6 60.2(3) 18_556 . ?
 O10 Th1 O7 141.20(11) 20_656 . ?
 O10 Th1 O7 141.20(12) 19_566 3_655 ?
 O10 Th1 O7 73.4(4) 18_556 3_655 ?
 O10 Th1 O7 73.4(4) 20_656 2_665 ?
 O10 Th1 O7 73.4(4) 18_556 . ?
 O10 Th1 O7 141.20(11) 17_666 3_655 ?
 O10 Th1 O7 141.20(11) 20_656 4_565 ?
 O10 Th1 O7 73.4(4) 17_666 2_665 ?
 O10 Th1 O7 73.4(4) 19_566 . ?
 O10 Th1 O7 73.4(4) 17_666 4_565 ?
 O10 Th1 O7 141.20(11) 18_556 4_565 ?
 O10 Th1 O7 141.20(11) 18_556 2_665 ?
 O10 Th1 O7 73.4(4) 20_656 3_655 ?
 O10 Th1 O7 141.20(11) 17_666 . ?
 O10 Th1 O7 141.20(11) 19_566 2_665 ?
 O10 Th1 O7 73.4(4) 19_566 4_565 ?
 O10 Th1 O10 75.7(2) 17_666 20_656 ?
 O10 Th1 O10 75.7(2) 17_666 19_566 ?
 O10 Th1 O10 75.7(2) 18_556 20_656 ?
 O10 Th1 O10 120.4(5) 17_666 18_556 ?
 O10 Th1 O10 75.7(2) 18_556 19_566 ?
 O10 Th1 O10 120.4(5) 20_656 19_566 ?
 Th1 Th2 Th1 87.95(2) . 17_666 ?
 Th1 Th2 Th2 59.410(6) . 3_655 ?
 Th1 Th2 Th2 59.410(6) 17_666 3_655 ?
 Th1 Th2 Th2 59.410(6) 17_666 19_566 ?
 Th1 Th2 Th2 59.410(6) . 19_566 ?
 Th2 Th2 Th2 90.0 19_566 3_655 ?
 O2 Th2 Th1 136.027(10) . . ?
 O2 Th2 Th1 136.027(10) . 17_666 ?
 O2 Th2 Th2 135.001(1) . 19_566 ?
 O2 Th2 Th2 135.001(1) . 3_655 ?
 O4 Th2 Th1 108.2(4) . 17_666 ?
 O4 Th2 Th1 108.2(4) 7_556 17_666 ?
 O4 Th2 Th1 108.2(4) 7_556 . ?
 O4 Th2 Th1 108.2(4) . . ?
 O4 Th2 Th2 160.7(6) . 19_566 ?
 O4 Th2 Th2 70.7(6) . 3_655 ?
 O4 Th2 Th2 160.7(6) 7_556 3_655 ?
 O4 Th2 Th2 70.7(6) 7_556 19_566 ?
 O4 Th2 O2 64.3(6) 7_556 . ?
 O4 Th2 O2 64.3(6) . . ?
 O4 Th2 O4 128.6(13) . 7_556 ?
 O4 Th2 O7 140.9(5) . 18_556 ?
 O4 Th2 O7 140.9(5) . . ?
 O4 Th2 O7 71.0(7) 7_556 . ?
 O4 Th2 O7 71.0(7) . 3_655 ?
 O4 Th2 O7 71.0(7) . 20_656 ?
 O4 Th2 O7 71.0(7) 7_556 18_556 ?
 O4 Th2 O7 140.9(5) 7_556 3_655 ?
 O4 Th2 O7 140.9(5) 7_556 20_656 ?
 O5 Th2 Th1 157.9(3) . . ?
 O5 Th2 Th1 70.0(3) . 17_666 ?
 O5 Th2 Th1 70.0(3) 18_556 . ?
 O5 Th2 Th1 157.9(3) 18_556 17_666 ?
 O5 Th2 Th2 106.70(17) . 19_566 ?
 O5 Th2 Th2 106.69(17) 18_556 19_566 ?
 O5 Th2 Th2 106.69(17) 18_556 3_655 ?
 O5 Th2 Th2 106.70(17) . 3_655 ?
 O5 Th2 O2 66.0(3) 18_556 . ?
 O5 Th2 O2 66.0(3) . . ?
 O5 Th2 O4 79.9(3) 18_556 7_556 ?
 O5 Th2 O4 79.9(3) . . ?
 O5 Th2 O4 79.9(3) 18_556 . ?
 O5 Th2 O4 79.9(3) . 7_556 ?
 O5 Th2 O5 132.1(5) . 18_556 ?
 O5 Th2 O7 139.2(4) 18_556 18_556 ?
 O5 Th2 O7 139.2(4) . 3_655 ?
 O5 Th2 O7 70.4(4) 18_556 . ?
 O5 Th2 O7 139.2(4) 18_556 20_656 ?
 O5 Th2 O7 139.2(4) . . ?
 O5 Th2 O7 70.4(4) . 18_556 ?
 O5 Th2 O7 70.4(4) . 20_656 ?
 O5 Th2 O7 70.4(4) 18_556 3_655 ?
 O7 Th2 Th1 37.9(5) . . ?
 O7 Th2 Th1 37.9(5) 3_655 . ?
 O7 Th2 Th1 92.3(4) 20_656 . ?
 O7 Th2 Th1 92.3(4) 18_556 . ?
 O7 Th2 Th2 36.9(4) 3_655 3_655 ?
 O7 Th2 Th2 93.7(5) 18_556 3_655 ?
 O7 Th2 Th2 36.9(4) 20_656 3_655 ?
 O7 Th2 Th2 93.7(5) . 3_655 ?
 O7 Th2 O2 121.3(4) 3_655 . ?
 O7 Th2 O2 121.3(4) . . ?
 O7 Th2 O2 121.3(4) 20_656 . ?
 O7 Th2 O2 121.3(4) 18_556 . ?
 O7 Th2 O7 75.3(9) . 3_655 ?
 O7 Th2 O7 117.4(9) . 20_656 ?
 O7 Th2 O7 73.4(8) 3_655 20_656 ?
 O7 Th2 O7 73.4(8) . 18_556 ?
 O7 Th2 O7 117.4(9) 3_655 18_556 ?
 O7 Th2 O7 75.3(9) 20_656 18_556 ?
 O9 Th2 Th1 78.8(5) 18_556 . ?
 O9 Th2 Th1 30.8(5) . . ?
 O9 Th2 Th1 30.8(5) 20_656 17_666 ?
 O9 Th2 Th1 30.8(5) 18_556 17_666 ?
 O9 Th2 Th1 78.8(5) 3_655 17_666 ?
 O9 Th2 Th1 78.8(5) 20_656 . ?
 O9 Th2 Th1 78.8(5) . 17_666 ?
 O9 Th2 Th1 30.8(5) 3_655 . ?
 O9 Th2 Th2 30.7(4) . 19_566 ?
 O9 Th2 Th2 79.9(5) 18_556 3_655 ?
 O9 Th2 Th2 79.9(5) 20_656 19_566 ?
 O9 Th2 Th2 30.7(4) 20_656 3_655 ?
 O9 Th2 Th2 30.7(4) 18_556 19_566 ?
 O9 Th2 Th2 79.9(5) 3_655 19_566 ?
 O9 Th2 Th2 30.7(4) 3_655 3_655 ?
 O9 Th2 Th2 79.9(5) . 3_655 ?
 O9 Th2 O2 137.0(5) 3_655 . ?
 O9 Th2 O2 137.0(5) 20_656 . ?
 O9 Th2 O2 137.0(5) 18_556 . ?
 O9 Th2 O2 137.0(5) . . ?
 O9 Th2 O4 83.1(7) 20_656 . ?
 O9 Th2 O4 138.9(6) 18_556 . ?
 O9 Th2 O4 138.9(6) 3_655 7_556 ?
 O9 Th2 O4 138.9(6) . . ?
 O9 Th2 O4 83.1(7) 18_556 7_556 ?
 O9 Th2 O4 83.1(7) . 7_556 ?
 O9 Th2 O4 83.1(7) 3_655 . ?
 O9 Th2 O4 138.9(6) 20_656 7_556 ?
 O9 Th2 O5 137.3(5) . . ?
 O9 Th2 O5 81.9(5) 18_556 . ?
 O9 Th2 O5 137.3(5) 18_556 18_556 ?
 O9 Th2 O5 81.9(5) 3_655 18_556 ?
 O9 Th2 O5 137.3(5) 20_656 18_556 ?
 O9 Th2 O5 81.9(5) . 18_556 ?
 O9 Th2 O5 81.9(5) 20_656 . ?
 O9 Th2 O5 137.3(5) 3_655 . ?
 O9 Th2 O7 68.2(6) . 3_655 ?
 O9 Th2 O7 101.6(8) . 20_656 ?
 O9 Th2 O7 67.0(6) 3_655 20_656 ?
 O9 Th2 O7 15.7(5) 20_656 20_656 ?
 O9 Th2 O7 67.0(6) . 18_556 ?
 O9 Th2 O7 68.2(6) 18_556 20_656 ?
 O9 Th2 O7 101.6(8) 18_556 3_655 ?
 O9 Th2 O7 15.7(5) 3_655 3_655 ?
 O9 Th2 O7 15.7(5) 18_556 18_556 ?
 O9 Th2 O7 101.6(8) 3_655 18_556 ?
 O9 Th2 O7 67.0(6) 20_656 3_655 ?
 O9 Th2 O7 68.2(6) 20_656 18_556 ?
 O9 Th2 O9 58.0(10) . 3_655 ?
 O9 Th2 O9 85.9(10) 3_655 18_556 ?
 O9 Th2 O9 57.3(9) 3_655 20_656 ?
 O9 Th2 O9 58.0(10) 20_656 18_556 ?
 O9 Th2 O9 57.3(9) . 18_556 ?
 O9 Th2 O9 85.9(10) . 20_656 ?
 O8 S1 O5 109.9(7) . . ?
 O8 S1 O5 109.9(7) 24 . ?
 O8 S1 O8 108(2) 24 . ?
 O8 S1 O10 108.4(7) . . ?
 O8 S1 O10 108.4(7) 24 . ?
 O10 S1 O5 112.0(6) . . ?
 O3 S2 O3 86.9(15) . 18_556 ?
 O3 S2 O4 114.3(6) 18_556 5_656 ?
 O3 S2 O4 114.3(6) . 5_656 ?
 O3 S2 O4 114.3(6) 18_556 . ?
 O3 S2 O4 114.3(6) . . ?
 O4 S2 O4 110.9(16) 5_656 . ?
 S2 O4 Th2 143.9(14) . . ?
 S1 O5 Th2 145.1(6) . . ?
 O6 O6 Th1 180.0 17_665 . ?
 Th1 O7 Th2 103.9(6) . 19_566 ?
 Th1 O7 Th2 103.9(6) . . ?
 Th2 O7 Th2 106.1(8) 19_566 . ?
 Th1 O9 Th2 117.6(5) . 19_566 ?
 Th1 O9 Th2 117.6(5) . . ?
 Th2 O9 Th2 118.6(9) 19_566 . ?
 S1 O10 Th1 139.1(7) . 17_666 ?

loop_
  _geom_torsion_atom_site_label_1
  _geom_torsion_atom_site_label_2
  _geom_torsion_atom_site_label_3
  _geom_torsion_atom_site_label_4
  _geom_torsion
  _geom_torsion_site_symmetry_1
  _geom_torsion_site_symmetry_2
  _geom_torsion_site_symmetry_3
  _geom_torsion_site_symmetry_4
  _geom_torsion_publ_flag
 O3 S2 O4 Th2 131.0(8) . . . . ?
 O3 S2 O4 Th2 -131.0(8) 18_556 . . . ?
 O4 S2 O4 Th2 0.0 5_656 . . . ?
 O5 S1 O10 Th1 0.000(2) . . . 17_666 ?
 O8 S1 O5 Th2 120.6(10) . . . . ?
 O8 S1 O5 Th2 -120.6(10) 24 . . . ?
 O8 S1 O10 Th1 121.5(10) 24 . . 17_666 ?
 O8 S1 O10 Th1 -121.5(10) . . . 17_666 ?
 O10 S1 O5 Th2 0.000(2) . . . . ?

_shelx_res_file
;
TITL nh4-th6-tetra_auto_a.res in I4/mmm
    nh4-th6-tetra.res
    created by SHELXL-2018/3 at 11:05:03 on 25-Aug-2021
REM Old TITL NH4-Th6-tetra_auto in I4/mmm
REM SHELXT solution in I4/mmm: R1 0.174, Rweak 0.016, Alpha 0.042
REM <I/s> 0.000 for 0 systematic absences, Orientation as input
REM Formula found by SHELXT: N49 O24 S12 Th6
CELL 1.54184 16.7324 16.7324 12.172 90 90 90
ZERR 1 0.0001 0.0001 0.0001 0 0 0
LATT 2
SYMM -X,-Y,+Z
SYMM -Y,+X,+Z
SYMM +Y,-X,+Z
SYMM -X,+Y,-Z
SYMM +X,-Y,-Z
SYMM +Y,+X,-Z
SYMM -Y,-X,-Z
SFAC N O S Th
UNIT 24 138 24 12
EADP O7 O9
EADP O3 S2 O4

L.S. 50 0 0
PLAN  7
TEMP -100.15(10)
CONF
CONN 24 Th1
CONN 24 Th2
BIND Th2 O2
list 4
MORE -1
fmap 2 53
acta
REM <olex2.extras>
REM <HklSrc "%./nh4-th6-tetra.hkl">
REM </olex2.extras>

WGHT    0.065600  145.599197
FVAR       0.10736
TH1   4    0.500000    0.500000    0.274747    10.12500    0.01856    0.01856 =
         0.02233    0.00000    0.00000    0.00000
TH2   4    0.620095    0.620095    0.500000    10.25000    0.04172    0.04172 =
         0.01786    0.00000    0.00000   -0.02602
S1    3    0.650055    0.650055    0.801573    10.50000    0.04716    0.04716 =
         0.02214   -0.00134   -0.00134   -0.02411
S2    3    0.500000    0.807587    0.500000    10.25000    0.23381    0.02644 =
         0.08184    0.00000    0.00000    0.00000
O2    2    0.730584    0.730584    0.500000    10.25000    0.15067    0.15067 =
         0.03159    0.00000    0.00000   -0.13302
O3    2    0.500000    0.868732    0.579607    10.50000    0.23381    0.02644 =
         0.08184    0.00000    0.00000    0.00000
O4    2    0.571673    0.758256    0.500000    10.50000    0.23381    0.02644 =
         0.08184    0.00000    0.00000    0.00000
O5    2    0.661887    0.661887    0.682733    10.50000    0.09372    0.09372 =
         0.02162   -0.00280   -0.00280   -0.07706
PART 2
O6    2    0.500000    0.500000    0.028860    10.06250    0.03568
O7    2    0.629735    0.500000    0.376624    10.25000    0.02185    0.04731 =
         0.02585    0.00000   -0.00222    0.00000
PART 0
O8    2    0.721195    0.626440    0.850030    11.00000    0.05198    0.26878 =
         0.14443    0.14707   -0.00899   -0.01971
PART 1
O9    2    0.595700    0.500000    0.407996    10.25000    0.02185    0.04731 =
         0.02585    0.00000   -0.00222    0.00000
PART 0
O10   2    0.589302    0.589302    0.824681    10.50000    0.09932    0.09932 =
         0.01910   -0.00382   -0.00382   -0.07813

O1    2    0.500000    0.836233    0.843006    10.50000    0.02750    0.03767 =
         0.02988   -0.00550    0.00000    0.00000
N1    1    0.500000    0.726275    1.000000    10.25000    0.03966    0.19295 =
         0.05010    0.00000    0.00000    0.00000
N2    1    0.632149    0.867851    0.750000    10.50000    0.07889    0.07889 =
         0.16451    0.04118    0.04118   -0.00152
HKLF 4




REM  nh4-th6-tetra_auto_a.res in I4/mmm
REM wR2 = 0.1202, GooF = S = 1.093, Restrained GooF = 1.093 for all data
REM R1 = 0.0438 for 1011 Fo > 4sig(Fo) and 0.0447 for all 1046 data
REM 72 parameters refined using 0 restraints

END

WGHT      0.0656    145.5701

REM Highest difference peak  2.078,  deepest hole -2.857,  1-sigma level  0.322
Q1    1   0.5000  1.0000  0.7500  10.12500  0.05    2.08
Q2    1   0.5000  0.8348  0.6300  10.50000  0.05    1.98
Q3    1   0.5000  0.8853  0.9297  10.50000  0.05    1.86
Q4    1   0.5000  0.8867  1.0000  10.25000  0.05    1.85
Q5    1   0.5000  0.8946  0.9488  10.50000  0.05    1.77
Q6    1   0.5355  0.7912  0.5000  10.50000  0.05    1.73
Q7    1   0.5000  1.0000  0.6641  10.25000  0.05    1.06
;
_shelx_res_checksum                82189
_shelx_hkl_file
;
   0   0   2  705.18   25.28
   0   0  -2  745.23   27.72
   0   0   4 7719.15  243.02
   0   0  -4 7875.89  247.92
   0   0  -4 7660.19  252.43
   0   0   6 5880.71  187.03
   0   0  -6 6074.29  207.93
   0   0  -8 2419.93   84.40
   0   0   8 2505.05   85.14
   0   0  -8 2502.59  110.93
   0   0 -10 2916.96  101.19
   0   0  10 2881.72  101.15
   0   0 -12  928.42   40.44
   0   0  12  861.53   38.70
   0   0 -14 1100.67   39.99
   0   0  14 1053.48   41.73
   0   0  14  988.48   38.17
   0   1   1 3111.09   95.46
   0   1  -1 3137.97   95.51
   0   1   1 3005.90   96.12
   0   1  -1 3093.57   99.04
   0   1   3 2959.91   95.79
  -1   0   3 2887.14   95.52
   0  -1   3 2911.17   94.03
   0   1   3 2994.33   93.70
  -1   0  -3 2917.94   91.04
   0  -1  -3 2950.29   97.14
   0   1  -3 2996.17  102.42
  -1   0  -3 2924.87   99.97
   1   0  -3 2954.69  100.66
   0  -1   5 1999.33   68.38
  -1   0   5 1958.44   69.94
  -1   0   5 1952.52   63.22
   0   1   5 1885.98   65.90
  -1   0  -5 1966.41   76.74
   0   1  -5 2086.21   80.85
   1   0  -5 2000.04   78.60
  -1   0  -7  321.67   16.65
   1   0   7  337.10   19.03
  -1   0   7  363.68   17.68
   0   1   7  353.21   17.84
   1   0   7  357.75   18.11
   0  -1   7  372.77   17.86
   1   0  -7  375.18   29.98
  -1   0  -7  338.34   30.80
   0   1  -7  348.67   30.42
   0  -1  -7  390.75   31.47
  -1   0  -9 3014.40  105.94
   0  -1  -9 3182.72  106.53
   1   0  -9 3103.98  106.49
   0   1  -9 3076.99  106.40
   0  -1   9 3185.61  106.42
   1   0   9 3123.64  107.14
   0   1   9 3231.17  107.39
  -1   0   9 3082.12  106.29
  -1   0  -9 2851.77  137.35
   0  -1  -9 3202.86  137.30
  -1   0 -11   71.29   10.04
   0  -1 -11   67.31    9.63
   1   0 -11   80.15   10.16
   0   1 -11   83.91   10.64
   0   1  11   66.98    9.45
  -1   0  11   52.83    8.44
   0  -1  11   73.70    9.48
   1   0  11   80.18    9.93
   1   0 -13 1303.26   51.59
   0  -1 -13 1278.08   50.90
   0   1  13 1309.86   50.31
   1   0  13 1243.86   49.89
   1   0  13 1236.97   49.53
  -1   0  13 1214.39   49.90
   1   1   0 5667.74  182.17
   1  -1   2  109.77    5.18
  -1   1  -2   93.48    8.75
   1   1  -2   99.08    8.79
  -1   1   4 2120.34   74.37
  -1  -1   4 2154.18   73.55
   1   1   4 2099.54   72.47
  -1   1   4 2156.55   68.81
   1   1  -4 2257.36   82.17
  -1   1  -4 2290.27   83.44
  -1  -1  -4 2117.78   78.32
   1  -1  -4 2158.64   79.69
  -1   1  -4 2163.93   80.35
  -1   1   6  331.22   20.50
  -1  -1   6  335.57   19.53
  -1   1   6  317.15   15.70
   1   1   6  330.49   17.84
   1   1   6  340.87   16.27
   1   1  -6  308.74   25.79
  -1  -1  -6  357.62   24.53
  -1   1  -6  311.21   26.94
   1  -1  -6  302.60   25.31
  -1   1  -8  534.33   25.39
   1  -1  -8  587.00   26.22
   1   1  -8  569.41   25.96
  -1  -1  -8  538.63   25.37
   1   1   8  556.00   26.45
  -1   1   8  569.38   26.02
  -1  -1   8  593.46   25.94
   1  -1   8  590.25   26.50
  -1   1  -8  632.82   46.06
   1  -1  -8  494.50   39.52
  -1  -1  -8  560.40   43.99
  -1  -1 -10  666.47   31.76
  -1   1 -10  712.84   32.43
   1   1 -10  661.93   31.74
   1  -1 -10  708.54   32.46
   1   1  10  674.28   32.62
  -1  -1  10  649.52   30.76
   1  -1  10  647.18   31.56
  -1   1  10  660.02   31.54
  -1  -1 -10  688.17   55.46
  -1  -1 -12  118.95   12.03
   1  -1 -12  102.06   11.40
   1   1 -12   96.22   11.39
  -1   1 -12  112.83   12.28
   1  -1  12  132.87   12.30
   1   1  12   91.47   10.66
  -1  -1  12  119.43   11.27
   1   1 -14  326.89   16.89
  -1  -1  14  350.17   18.88
   1  -1  14  306.39   17.37
  -1   1  14  303.56   17.80
   1   1  14  286.86   16.71
  -1   1  14  313.92   15.76
   0   2   0 1421.80   60.26
   0   2   2  349.74   13.79
   0   2  -2  357.36   13.94
   0   2   2  373.39   15.05
   0   2  -2  354.00   19.07
   0  -2   4  444.55   19.38
  -2   0   4  461.80   22.13
  -2   0  -4  452.76   26.58
   0   2   4  454.06   19.65
   0   2  -4  515.27   29.07
   0  -2  -4  462.81   22.00
   2   0  -4  437.40   25.26
   0   2  -6  528.58   22.41
   0  -2   6  476.08   23.85
  -2   0   6  477.59   26.65
   0   2   6  496.26   21.98
   2   0   6  541.78   22.69
   0   2   6  512.48   22.57
  -2   0  -6  528.28   33.93
   0   2  -6  498.40   34.37
   2   0  -6  535.33   33.39
   0  -2  -6  523.29   34.76
  -2   0  -8   92.37    8.47
   2   0  -8  106.19    9.64
   0  -2  -8   98.50    9.12
  -2   0  -8  107.08    9.37
   0   2   8  114.83   10.36
  -2   0   8   95.88    8.77
   2   0   8  110.38   10.26
   0  -2   8  112.32    9.41
   0  -2  -8   95.80   17.82
  -2   0  -8  112.58   20.73
  -2   0 -10    8.94    5.54
   0  -2 -10    2.53    4.48
   2   0 -10    0.91    4.73
   0   2  10   11.32    6.18
   2   0  10   15.63    6.26
  -2   0  10   13.39    4.99
   0  -2  10    5.03    3.72
   0  -2 -10   17.37    9.50
  -2   0 -10    4.05    9.58
   0   2 -12    0.96    5.55
   2   0 -12   -0.97    5.76
   0  -2 -12   -0.89    4.95
   0  -2  12    2.34    3.69
   0   2  12    9.50    6.02
   0   2  12    4.60    4.95
   2   0  12    3.89    4.60
   0   2 -14   33.45    5.86
   0   2  14   33.28    6.06
   0  -2  14   38.89    7.03
   2   0  14   39.65    5.76
  -2   0  14   37.35    6.48
   0   2  14   31.97    5.40
   1   2   1   11.92    2.31
   2   1  -1   10.90    2.02
   1   2  -1    9.05    3.36
  -1   2   1    7.20    2.52
  -1   2  -1   10.48    3.02
   1   2   1   12.52    2.88
  -1   2   3  755.38   26.85
  -1   2  -3  752.90   26.90
   1  -2   3  791.96   26.69
  -2   1  -3  776.53   35.51
  -1   2  -3  762.79   28.89
   1   2   3  768.73   29.90
   2  -1  -3  801.02   32.65
  -1   2  -3  805.15   35.90
  -1  -2   5  182.01   12.28
  -2  -1   5  201.89   13.81
  -1   2   5  194.08   13.79
  -2   1   5  155.10   12.81
   2   1   5  140.17   11.29
   1   2   5  165.07   11.50
   2  -1  -5  183.96   16.34
  -2   1  -5  193.33   18.03
  -2   1  -5  156.45   17.29
  -1  -2  -5  155.79   14.40
   1  -2  -5  138.46   14.82
  -1   2  -5  190.73   18.86
  -2  -1  -5  158.52   15.94
   1   2  -5  152.58   16.77
  -1   2  -7  497.88   23.05
  -2   1  -7  497.66   22.73
  -1  -2   7  508.25   26.85
  -2   1   7  507.70   29.66
  -2  -1   7  497.24   28.41
   1   2   7  495.48   23.03
   2   1   7  478.25   23.06
  -1  -2   7  499.18   21.98
  -2   1   7  499.83   22.40
  -1   2   7  477.24   22.59
   2   1   7  517.15   26.64
   1  -2   7  477.24   22.44
  -2  -1   7  510.33   22.02
   2  -1   7  501.97   23.27
  -2  -1  -7  511.03   34.51
  -1  -2  -7  494.19   37.83
  -1   2  -7  500.94   37.93
   1  -2  -7  480.10   34.76
   2  -1  -7  570.62   36.43
  -2  -1  -7  536.61   40.20
  -2   1  -7  521.15   39.93
  -1  -2  -9  419.44   21.32
  -2  -1  -9  406.82   21.48
   1  -2  -9  387.86   21.12
   2   1  -9  389.71   21.47
  -2   1  -9  386.35   21.26
   2  -1  -9  401.59   21.77
  -2  -1   9  423.52   21.15
   1  -2   9  386.27   21.12
   2  -1   9  358.56   21.25
  -1  -2   9  376.03   20.36
  -1   2   9  396.33   21.52
   1   2   9  388.26   21.94
  -2   1   9  392.85   21.36
   2   1   9  405.67   22.52
   1  -2  -9  305.15   32.73
  -2   1  -9  401.11   40.50
  -1  -2  -9  384.47   38.80
  -2  -1  -9  392.69   40.31
  -2   1 -11  291.26   19.40
  -1  -2 -11  287.28   18.58
  -2  -1 -11  285.09   19.06
   2   1 -11  295.67   19.49
   2  -1 -11  301.01   19.62
  -1   2 -11  283.15   19.05
   1  -2 -11  302.53   19.16
   1   2 -11  278.78   16.87
  -2  -1  11  290.71   17.99
  -2   1  11  294.28   18.88
   2  -1  11  280.78   19.19
   2   1  11  313.75   20.18
   1   2  11  305.82   19.99
  -1  -2  11  247.92   16.75
  -1   2  11  316.85   19.71
   1  -2  11  283.12   18.45
   2  -1 -13  143.03   10.75
   2   1 -13  149.02   11.75
   2   1 -13  141.81   13.10
   2  -1 -13  172.26   14.30
   1  -2 -13  156.88   13.11
   2  -1  13  157.40   12.93
   2   1  13  164.06   13.45
   2   1  13  158.60   12.34
   1   2  13  143.11   12.27
  -2   1  13  162.33   13.18
  -1   2  13  142.44   12.48
   1  -2  13  132.93   11.18
  -2   1  13  144.71   10.95
  -1   2 -15   34.74    5.37
  -2   2   0  660.01   22.80
  -2   2   0  730.99   30.99
  -2   2   0  634.64   25.29
   2   2   0  777.41   32.52
  -2   2   0  642.31   22.62
   2   2   2 2043.24   67.73
  -2   2  -2 1961.75   72.15
   2  -2  -2 1977.54   65.50
  -2   2   4  230.89   14.87
  -2   2   4  252.49   11.40
   2   2   4  243.21   14.67
  -2   2  -4  252.49   13.31
   2  -2  -4  222.17   15.83
  -2   2  -4  219.69   18.53
  -2   2  -6  576.22   24.96
  -2  -2   6  608.42   29.95
  -2   2   6  634.48   32.10
   2   2   6  617.95   29.18
  -2   2   6  598.80   24.64
   2  -2   6  591.65   25.06
   2   2   6  567.09   24.76
   2  -2  -6  566.19   34.58
  -2   2  -6  612.59   39.81
  -2  -2  -6  607.90   35.43
  -2   2  -8    4.42    3.56
  -2  -2   8    8.00    4.82
   2   2  -8   -0.70    3.63
   2  -2  -8    2.08    3.90
  -2   2  -8    7.45    4.29
  -2  -2  -8    3.23    3.58
  -2   2   8    4.17    3.98
   2   2   8    3.09    3.80
   2  -2   8    4.42    3.56
  -2  -2   8    3.55    3.18
  -2   2  -8   -3.08    7.88
   2  -2  -8    4.61    6.68
  -2  -2  -8   -3.19    8.73
  -2   2 -10    3.66    5.16
  -2  -2 -10    7.62    4.56
   2  -2 -10   -2.69    5.41
  -2   2  10    4.51    4.09
   2   2  10   -1.02    5.00
  -2  -2  10    2.25    3.90
   2  -2  10    5.58    4.31
  -2  -2 -10    4.05    9.58
   2  -2 -12   53.33    8.55
   2   2  12   48.77    8.82
  -2   2  12   50.31    8.86
   2  -2  12   50.04    8.23
   2   2  12   36.09    7.07
   2   2 -14   26.56    4.88
   2  -2  14   24.57    4.85
  -2   2  14   18.93    5.11
  -2  -2  14   32.17    6.32
  -2   2  14   22.91    4.62
   0   3   1  257.96   12.32
   0   3  -1  305.97   17.02
   0   3  -3 3964.39  127.15
   0   3   3 4079.16  127.04
   0  -3   5  110.32    8.47
  -3   0   5  105.34   10.85
   0  -3  -5   93.79    9.26
   0   3  -5   93.07   13.94
  -3   0  -5  112.80   14.73
  -3   0  -7 2932.05   98.70
   0   3  -7 3159.49  101.06
  -3   0   7 3043.35  110.70
   0  -3   7 3060.03   98.86
   3   0   7 2924.28  100.69
   0   3   7 2867.00   99.68
   3   0   7 2966.21  106.56
  -3   0   7 2931.88   98.40
   0  -3  -7 2979.88  121.77
  -3   0  -7 3197.45  123.48
  -3   0  -7 2988.02  127.53
   0  -3  -9   24.91    5.59
   0   3  -9   15.90    5.23
   3   0  -9   17.62    5.87
  -3   0  -9   13.83    5.35
   0   3   9   13.78    5.15
   0  -3   9   17.58    4.83
   3   0   9   12.05    5.17
  -3   0   9   14.05    4.60
  -3   0  -9   19.04   12.75
   0  -3  -9   18.60    9.49
   0   3  11 1419.60   55.93
   0  -3  11 1359.40   52.83
   3   0  11 1384.74   56.33
   0   3  11 1312.68   54.15
   3   0 -11 1346.86   55.36
   0   3 -11 1384.04   51.98
   0  -3 -11 1399.03   54.17
   3   0 -13  143.09   11.11
   3   0  13  140.13   11.15
   3   0  13  123.29   12.37
   0   3  13  147.95   12.50
   3   0 -13  154.67   13.72
   0   3 -15  187.71   11.53
   1   3   0  147.20   16.44
  -1   3   0  116.82    8.64
   1   3   2 2058.96   67.05
   1   3  -2 2070.80   67.25
   1   3   2 2050.96   68.82
  -1   3  -2 2003.30   69.29
  -1   3   2 1986.78   68.23
  -1   3  -2 2009.69   73.11
  -1   3  -4    3.67    1.65
  -1   3   4    1.27    1.53
  -3   1   4    4.61    3.32
   1  -3   4    2.63    1.69
   1   3   4    1.89    2.85
  -3   1  -4    1.37    5.63
  -3   1  -6 2190.85   73.07
   1   3  -6 2277.02   73.83
  -1   3  -6 2123.91   73.21
  -3   1   6 2159.70   81.40
  -1  -3   6 2107.13   76.34
  -3  -1   6 2108.26   80.75
   3  -1   6 2128.81   73.53
  -1   3   6 2113.03   72.70
   3   1   6 2166.09   73.41
  -3   1   6 2048.06   71.58
   1   3   6 2122.83   72.82
   3   1   6 2142.35   78.97
   1   3   6 2184.68   76.38
  -1   3  -6 2153.17   92.57
   1  -3  -6 2172.85   87.97
  -3   1  -6 2175.74   92.50
  -3   1  -6 2175.73   94.16
  -3  -1  -6 2185.41   91.20
  -1  -3  -6 2114.50   81.36
  -3   1  -8   23.18    5.28
  -1   3  -8   20.35    5.15
   1   3  -8    9.18    3.34
  -3  -1  -8   23.11    5.32
  -3  -1   8   29.76    8.30
   3  -1  -8   13.14    4.49
  -3   1  -8   27.83    5.76
  -1   3  -8   12.88    4.52
   1  -3  -8   11.01    4.23
   1   3  -8   21.76    5.20
  -1  -3  -8   16.91    4.35
   3  -1   8   17.66    5.11
  -1  -3   8   19.80    4.40
   3   1   8   12.90    5.19
  -1   3   8   13.90    4.55
  -3  -1   8   14.41    4.01
  -3   1   8   20.46    4.75
   1   3   8   12.15    5.05
   3   1   8   17.66    5.33
   3  -1   8    8.79    4.40
   1  -3   8   19.63    4.92
  -3  -1  -8   13.35    9.69
   1  -3  -8   22.15    8.91
  -1  -3  -8    8.91    8.63
  -3   1  -8    9.76    9.95
   1   3 -10  587.62   29.02
  -1  -3 -10  551.88   27.35
  -3   1 -10  535.01   28.35
  -1   3 -10  535.96   25.95
  -3  -1 -10  505.08   27.64
   3  -1 -10  550.64   28.77
   1  -3 -10  576.48   28.08
  -1   3  10  607.38   29.50
   1   3  10  606.91   30.17
   3  -1  10  573.30   29.65
  -1  -3  10  556.88   26.52
  -3  -1  10  617.15   27.80
   3   1  10  554.15   29.42
   1  -3  10  620.25   28.53
  -3  -1 -10  515.29   50.63
  -3   1 -10  613.23   53.62
  -1  -3 -10  485.67   46.25
   3  -1 -12  197.13   13.99
   3  -1 -12  232.75   17.41
   3   1 -12  236.29   16.81
  -1  -3 -12  228.18   16.04
   1  -3 -12  210.83   15.62
   1   3  12  236.41   16.42
  -1   3  12  235.74   16.65
   1  -3  12  193.90   14.43
   1   3  12  231.50   16.92
   3   1  12  210.79   16.63
   3  -1  12  238.55   17.21
   3   1  12  225.42   15.21
  -3   1  12  209.13   14.19
   3   1 -14   21.89    4.36
   1   3 -14   27.66    5.09
   3  -1 -14   22.76    6.79
   1  -3  14   19.00    5.40
  -1  -3  14   25.44    6.13
   1   3  14   16.81    4.51
  -3   1  14   24.51    5.50
  -3  -1  14   26.23    5.58
  -1   3  14   18.02    4.91
   1   3  14   17.03    4.55
  -1   3  14   16.44    4.32
   2   3   1    2.03    2.36
  -2   3   1    0.74    2.10
  -3   2  -1    2.71    3.27
  -2   3  -1    2.97    3.49
   2   3   1    0.98    2.69
  -2   3  -1    5.30    5.47
   3   2  -1    4.91    3.45
   3   2   1    2.89    2.91
   3   2  -1    4.49    2.59
   2   3  -1    4.67    5.58
  -2   3   1    1.69    3.21
  -2   3  -1   -0.70    4.05
  -2   3  -1    1.56    3.26
  -3   2   3   50.95    6.30
  -2   3   3   34.23    5.57
  -2   3  -3   40.28    5.95
  -2   3   3   33.09    4.91
   2   3   3   40.59    5.99
   3   2   3   40.57    6.21
  -2   3  -3   33.13    8.34
  -2   3  -3   31.74    7.72
  -3   2  -3   55.81    9.54
  -2   3   5  360.21   15.20
  -2   3  -5  364.24   15.43
  -2   3   5  396.99   22.42
  -3   2   5  354.28   21.56
  -3   2   5  328.95   15.22
  -3   2  -5  361.32   18.35
   3   2   5  384.61   21.32
   2   3   5  391.96   21.01
   2  -3  -5  379.90   23.69
  -3   2  -5  375.01   28.13
   3  -2  -5  376.90   23.36
  -3   2  -7  567.14   25.57
  -2   3  -7  558.59   25.57
  -2  -3   7  521.06   29.09
  -3  -2   7  544.02   31.26
  -3   2   7  554.40   33.14
   2  -3   7  576.29   25.08
  -3   2   7  540.50   24.29
   3   2   7  556.64   25.48
   3  -2   7  559.13   25.63
  -2   3   7  566.00   24.98
   2   3   7  524.48   24.86
   2   3   7  562.80   28.79
   3   2   7  537.91   29.69
  -3  -2  -7  575.91   38.80
  -3   2  -7  549.80   42.24
  -2   3  -7  564.97   41.41
  -2  -3  -7  493.99   33.08
   2  -3  -7  549.39   36.04
  -2   3  -9  283.65   18.63
  -3   2  -9  269.84   17.71
   3   2  -9  298.98   18.26
   2   3  -9  276.98   15.78
   3  -2  -9  276.82   17.98
  -3  -2  -9  290.77   17.89
  -2  -3  -9  277.05   17.14
   2   3  -9  314.69   18.41
  -3   2  -9  308.35   18.53
   2  -3  -9  245.17   16.61
  -2   3  -9  280.62   16.34
  -2   3   9  329.75   18.91
   2  -3   9  310.71   18.45
  -3  -2   9  300.74   16.72
  -3   2   9  276.83   17.48
   3   2   9  304.84   19.32
   3  -2   9  305.02   18.99
   2   3   9  290.92   18.92
  -3  -2  -9  255.35   34.02
  -2  -3  -9  259.05   32.77
  -3   2  -9  330.96   36.80
   2  -3 -11  238.00   16.49
  -2  -3 -11  217.55   15.70
   2   3 -11  199.45   15.78
   3  -2 -11  226.40   16.68
   3   2  11  203.60   16.53
   2  -3  11  190.50   15.31
   2   3  11  179.12   14.46
   3  -2  11  213.08   16.43
   2   3  11  206.17   16.32
   3   2  11  193.51   14.52
  -2   3  11  206.71   15.87
  -2  -3 -11  154.12   27.28
  -3  -2 -11  194.85   30.88
   3   2 -13  125.47   10.84
   2   3 -13  123.85   10.86
   3  -2 -13  146.85   12.93
   2  -3 -13  127.91   11.73
   3   2  13  124.56   11.90
   2  -3  13  129.48   10.60
   2   3  13  126.55   11.00
  -2   3  13  125.66   11.89
  -3   2  13  110.03   11.26
   3  -2  13  135.33   12.09
   3   2  13  115.97   10.25
  -2   3  13  117.65   10.27
  -3   2  13  132.01   10.43
   2   3 -15   83.81    7.48
  -2   3 -15   88.27    7.62
   3   2 -15   75.19    6.68
  -3   3   0 9637.46  300.11
  -3   3   0 9999.00  305.08
  -3   3   2  159.70   10.90
   3   3  -2  168.45   11.59
   3   3   2  175.19   12.03
  -3   3  -2  179.17   11.74
  -3   3  -2  164.77   13.10
  -3   3   4 1827.76   68.56
  -3   3  -4 1941.02   68.25
   3   3   4 1876.04   68.72
  -3   3   4 1818.20   65.19
  -3   3  -4 1858.16   76.13
  -3   3  -4 1736.87   75.92
   3  -3  -4 1901.34   67.46
  -3   3   6  603.36   32.61
  -3  -3  -6  565.52   36.81
   3   3   6  558.58   30.24
  -3   3   6  624.72   25.39
   3  -3   6  581.23   25.69
   3  -3  -6  605.59   33.82
  -3   3  -8  151.52   12.55
   3   3  -8  130.82   10.37
  -3  -3   8  160.59   16.50
  -3  -3  -8  128.25   10.93
   3   3  -8  147.30   11.80
   3  -3  -8  141.46   11.64
  -3   3  -8  155.49   11.06
  -3   3   8  168.14   12.55
   3  -3   8  175.86   13.06
   3   3   8  180.88   13.36
   3  -3 -10  495.60   26.38
   3   3 -10  515.11   24.23
   3   3 -10  519.25   26.88
  -3  -3 -10  554.58   26.75
   3   3  10  485.19   27.21
   3   3  10  494.88   25.04
   3  -3  10  521.01   27.55
  -3  -3 -10  473.02   49.42
   3   3 -12   31.89    7.11
   3   3 -12   26.61    5.61
   3  -3 -12   31.94    7.48
  -3   3  12   45.06    8.23
   3  -3  12   24.98    6.26
   3   3  12   27.28    6.23
   3   3  12   33.96    7.83
  -3   3  12   27.09    6.40
   3   3 -14  240.90   13.81
  -3   3  14  251.39   15.10
   0   4   0 3120.45  115.80
   0   4   2 1908.88   65.76
   0   4  -2 1950.25   65.78
   0   4  -2 2104.09   71.28
   4   0  -2 1934.53   62.74
   0   4   4  701.56   27.23
   0   4  -4  683.50   27.42
   0   4  -6 3944.50  126.73
  -4   0   6 3992.24  136.60
   0  -4   6 3846.74  126.64
   4   0   6 3905.17  127.07
   0   4   6 3783.33  125.84
  -4   0  -6 3848.61  149.08
  -4   0  -8  277.00   16.75
  -4   0   8  327.31   25.93
   0   4  -8  297.19   16.27
   4   0  -8  307.01   18.16
   0  -4  -8  319.30   17.07
  -4   0  -8  306.16   18.07
   0   4  -8  315.96   17.90
   0   4   8  331.50   18.56
   4   0   8  322.06   19.23
   0  -4   8  315.52   16.93
   4   0   8  314.66   23.27
  -4   0   8  319.34   17.17
  -4   0  -8  307.98   32.16
  -4   0  -8  303.60   34.95
   0  -4  -8  286.88   29.78
   0  -4 -10 1816.55   65.76
   0   4 -10 1820.02   67.18
   4   0 -10 1710.57   67.21
   0   4 -10 1700.38   64.55
   0   4  10 1779.19   66.74
   0   4  10 1801.52   67.88
   0  -4  10 1785.61   64.63
   4   0  10 1789.00   68.90
  -4   0 -10 1742.85  101.77
   0  -4 -10 1725.88   91.55
   4   0 -12  782.73   34.34
   4   0 -12  884.66   38.29
   0  -4 -12  824.86   35.46
   0   4 -12  810.20   33.52
   4   0  12  732.02   33.09
   0   4  12  806.47   36.75
   4   0  12  813.11   37.92
   0   4 -14  216.06   13.17
   4   0 -14  195.13   14.89
   0   4  14  200.28   13.03
   0   4  14  227.82   12.98
   1   4   1 1464.35   50.70
  -1   4   1 1464.24   52.79
  -1   4  -1 1384.58   52.86
   4   1  -1 1487.38   49.69
   1   4  -1 1504.58   61.75
  -4   1  -1 1427.99   47.70
   4   1  -1 1442.26   47.68
  -1   4   3 3698.62  121.51
   1   4   3 3827.25  121.84
   1   4  -3 3901.60  122.20
  -1   4  -3 3829.09  121.83
   1   4   3 3589.81  123.88
  -1   4  -5   68.46    6.07
   1   4  -5   67.24    6.55
  -1   4   5   59.98    5.49
   1  -4   5   54.45    4.95
  -4   1   5   77.42    9.57
   1   4   5   71.58    8.16
  -1  -4  -5   67.26    8.80
  -4   1  -5   51.12   12.01
  -4   1  -7 3048.55  103.08
  -1   4  -7 3098.98  103.78
  -4  -1   7 2989.48  113.89
  -1  -4   7 2954.11  105.49
  -4   1   7 3126.60  115.12
  -4  -1   7 3181.23  100.83
  -4   1   7 3091.05  101.81
   1  -4   7 3025.91  101.66
   4   1   7 2995.91  111.31
  -1   4   7 3002.74  102.68
   4   1   7 3067.29  104.05
   4  -1   7 3024.56  104.02
   1   4   7 3001.48  102.76
  -4   1  -7 3175.05  129.42
  -4  -1  -7 3318.73  129.21
   1  -4  -7 3284.07  122.93
  -4   1  -7 3087.37  131.21
  -4   1  -9  148.56   12.05
   1  -4  -9  125.15   11.01
  -1   4  -9  113.18   10.31
  -1   4  -9  138.49   12.27
   1   4  -9  131.20   10.56
   1   4  -9  114.73   11.20
  -4  -1   9   99.11   15.58
  -4  -1  -9  154.51   12.91
   4  -1  -9  121.15   11.87
  -1  -4  -9  140.18   11.25
  -4   1  -9  113.64   11.67
  -1   4   9  138.48   11.97
   1   4   9  126.95   11.40
   1  -4   9  127.05   10.97
   1   4   9  139.29   12.34
   4   1   9  128.10   12.51
  -1   4   9  132.90   12.17
   4  -1   9  153.69   13.32
  -4  -1  -9  141.46   25.31
   1  -4  -9  122.43   19.36
  -1  -4  -9  120.60   22.30
  -4   1  -9  101.42   21.68
   4  -1 -11 1241.33   50.14
   1  -4 -11 1324.61   52.03
   1   4 -11 1325.41   53.25
  -1   4 -11 1406.36   51.09
  -1   4 -11 1330.39   53.93
  -1  -4 -11 1340.57   52.01
   4  -1 -11 1395.49   55.19
   1   4 -11 1337.11   51.20
   1   4 -11 1271.46   69.77
  -1   4  11 1289.11   53.23
   1  -4  11 1239.68   50.55
   4   1  11 1384.08   55.64
   1   4  11 1304.68   52.84
   1   4  11 1360.81   54.72
   4  -1  11 1308.61   55.04
  -4   1  11 1314.89   50.46
  -4  -1 -11 1188.02   84.11
   4   1 -13   84.55    8.81
   1  -4 -13   84.00    9.07
   4   1 -13   75.98   10.10
   4  -1 -13  103.61   11.59
   4   1  13   73.11    9.77
   4  -1  13   79.13   10.36
   1   4  13   87.28    9.50
   4  -1  13   75.93    7.62
  -1   4  13   92.89   10.05
  -4  -1  13   89.61    9.87
  -1   4  13   96.05    9.30
  -1   4 -15  360.13   17.29
  -2   4   0  831.80   34.97
  -2   4   0  822.54   40.14
   2   4   0  928.68   41.98
   4   2   0  808.22   32.36
   2   4  -2 2208.54   74.44
   2   4   2 2077.76   73.91
  -2   4  -2 2266.63   79.08
   2   4   2 2103.17   76.07
  -2   4  -2 2139.66   77.29
   2   4  -2 2461.30   80.47
  -2   4   2 2243.86   76.57
   4   2   2 2174.11   76.41
  -2   4  -4  548.92   23.54
  -2   4   4  519.06   23.08
  -4   2   4  520.44   26.96
   4   2   4  547.50   27.39
   2   4   4  559.09   27.00
  -4   2  -4  586.08   34.86
  -2   4  -6  275.89   15.43
  -2  -4   6  280.70   18.26
  -4   2   6  263.70   19.91
  -4  -2  -6  244.67   25.01
   2  -4   6  252.33   14.26
  -2   4   6  259.68   14.40
   4  -2   6  241.63   14.86
  -4   2   6  274.53   14.28
   2   4   6  263.60   17.91
   4   2   6  265.96   19.43
  -4   2  -6  285.59   27.33
   2  -4  -6  282.46   22.14
  -2  -4  -6  208.57   19.40
  -4   2  -8    7.51    4.56
  -2   4  -8    1.68    3.72
  -2  -4  -8    6.30    3.60
  -4  -2   8    3.43    4.69
  -4   2  -8    4.58    5.01
   4   2  -8    3.78    4.32
   4   2  -8    3.67    3.18
   2   4  -8    0.62    3.22
   2   4  -8    0.70    3.92
   2  -4  -8    3.35    3.55
  -4  -2  -8    3.61    3.75
  -2   4  -8    0.72    4.14
  -2   4  -8    3.80    3.97
   4  -2  -8    1.61    4.33
   4   2   8    2.94    3.76
   2  -4   8    6.58    3.61
   4   2   8   19.45    5.72
  -2   4   8    1.54    3.93
   2   4   8    7.12    4.46
   4  -2   8    3.48    4.29
  -4  -2  -8    2.73    8.75
   2  -4  -8    4.30    5.88
   2   4 -10    2.15    3.60
   4   2 -10    2.80    5.56
   2   4 -10   14.34    6.31
   2  -4 -10    5.03    4.99
  -2  -4 -10   14.40    5.36
   4  -2 -10    3.07    5.59
  -2   4 -10    0.75    4.08
  -2   4 -10   11.33    6.52
  -2   4  10    0.94    4.83
   4   2  10    7.51    6.14
   2   4  10   -0.85    4.21
   4  -2  10    4.30    4.87
   2  -4  10    0.87    4.21
   2   4  10    7.11    5.64
  -4  -2 -10    9.15    8.84
  -4   2 -10    4.17   10.66
  -2  -4 -10   15.88   13.83
   4   2 -12   77.04    9.60
   2   4 -12   81.68    8.80
   2   4 -12   90.33   10.29
   2  -4 -12  103.40   10.64
   4  -2 -12  105.62   12.16
   2   4  12   87.37    9.97
   4  -2  12   73.86   10.96
   2  -4  12   72.25    8.65
  -2   4  12   87.14   10.46
   2   4  12   88.72   11.00
   4   2  12   92.75   11.27
   4   2  12   83.95    8.95
  -4   2  12   87.86    9.20
  -2   4 -14   19.01    5.15
   2   4 -14   15.01    4.31
   4   2 -14   18.76    4.18
   2   4 -14   17.94    5.49
   4  -2 -14   38.10    7.32
  -2   4  14   26.72    5.50
  -4  -2  14   20.36    4.80
   2   4  14   22.13    4.65
  -2   4  14   20.48    4.27
  -4   3   1 1330.87   47.71
  -3   4   1 1369.04   47.77
  -4   3  -1 1403.47   43.82
   3   4  -1 1177.00   58.97
   3   4   1 1410.59   50.79
   4   3  -1 1197.02   55.19
  -4   3  -1 1151.84   54.60
  -3   4  -1 1055.68   57.39
  -3   4  -1 1354.79   52.56
   4   3  -1 1370.52   49.02
  -3   4   1 1343.73   52.13
  -3   4  -1 1458.07   54.22
   4   3   3 1219.09   48.25
   3   4  -3 1229.24   48.23
   3   4   3 1188.19   47.59
  -3   4  -3 1170.40   47.57
  -3   4   3 1168.24   46.67
  -3   4  -3 1163.37   48.16
  -4   3  -3 1208.77   51.81
   3  -4  -3 1175.79   41.61
  -3   4  -3 1246.35   52.52
  -3   4  -5 2101.09   72.21
  -3   4   5 2089.42   71.82
  -3   4   5 2093.07   79.46
  -4   3   5 2168.99   79.72
  -3   4   5 2105.91   71.06
  -4   3  -5 2227.40   77.98
   3   4   5 2189.16   79.03
   3   4   5 1999.52   70.38
   4   3   5 2137.65   79.60
  -4   3   5 2115.37   74.02
   4   3   5 2028.39   70.65
  -4   3  -5 2025.85   89.93
   4   3   5 2113.33   70.37
  -4   3  -5 2109.11   89.30
   3  -4  -5 2158.41   77.99
  -3   4  -5 2017.72   87.75
  -4   3  -7  257.20   15.92
  -3   4  -7  244.35   15.60
   4   3  -7  220.07   14.15
  -4  -3   7  233.46   20.33
  -3   4  -7  230.32   14.53
   4  -3  -7  233.72   14.87
  -3  -4   7  256.63   19.70
  -4   3   7  239.23   21.05
  -3   4   7  261.85   15.28
   3   4   7  223.66   13.30
   3   4   7  229.22   18.32
   4   3   7  183.62   17.75
   3  -4   7  235.39   14.89
   4  -3   7  241.82   15.51
  -3  -4  -7  236.29   23.50
  -4  -3  -7  226.53   25.50
  -3   4  -9 1615.54   62.09
  -4   3  -9 1648.11   62.51
   3   4  -9 1596.40   58.14
  -4  -3   9 1660.51   72.97
  -3  -4  -9 1585.68   58.91
   3  -4  -9 1597.62   59.54
   4  -3  -9 1585.03   60.72
   4   3  -9 1583.53   59.90
   3   4  -9 1584.57   59.60
   4   3  -9 1587.26   58.10
  -4  -3  -9 1579.23   59.53
  -3   4  -9 1587.79   58.05
   3   4   9 1526.44   58.19
   3  -4   9 1577.88   60.59
   4   3   9 1518.96   56.98
   4   3   9 1558.12   61.23
   3   4   9 1537.98   60.77
   4  -3   9 1548.41   61.46
  -3  -4  -9 1415.64   89.96
  -4  -3  -9 1395.71   91.16
   3   4 -11   28.92    6.38
   4  -3 -11    6.02    5.24
   4   3 -11   13.80    5.57
   3  -4 -11   13.35    5.53
   3   4  11   15.88    5.38
   4   3 -11   21.30    8.26
   3   4 -11   22.93    9.22
   4   3  11   16.12    6.25
   3  -4  11   16.14    5.82
   3   4  11    5.25    5.67
  -4   3  11   20.93    6.96
   4  -3  11   20.24    6.89
   4   3  11   19.41    5.22
  -4   3 -11   27.95    9.56
  -3   4 -11   24.62    9.82
  -4  -3 -11   24.18   14.02
  -3  -4 -11   13.22   10.44
  -4   3  11   15.13    5.62
   3   4 -13 1028.99   40.77
   4   3 -13  980.93   40.10
   3   4 -13 1030.01   39.20
   4  -3 -13 1039.44   42.56
   4   3 -13  994.16   40.73
   3   4 -13  987.32   40.48
   4   3 -13 1012.21   39.40
   3  -4 -13 1036.10   40.75
   4  -3  13  991.90   41.63
  -3   4  13 1029.09   42.14
   4   3  13 1012.52   42.09
  -3   4  13 1023.43   39.75
  -4   3  13 1000.59   38.95
  -4   4   0 7094.16  224.73
   4   4   0 7383.81  230.22
  -4   4   0 7316.20  231.55
  -4   4   2  174.51   12.31
   4   4  -2  192.74   15.69
   4   4   2  191.43   14.12
  -4   4  -2  198.48   16.13
  -4   4  -2  167.74   13.78
  -4   4  -2  203.32   17.28
  -4   4   4 9500.16  302.64
   4   4   4 9740.21  305.42
  -4   4  -4 9478.29  305.36
  -4   4  -4 9209.98  303.00
   4   4  -4 9678.11  303.97
  -4   4  -4 9567.01  313.06
  -4   4  -6 1207.99   45.40
  -4   4   6 1292.94   56.85
   4   4   6 1208.26   53.75
   4   4   6 1277.19   45.98
   4  -4   6 1163.62   46.61
  -4   4  -6 1233.31   65.03
  -4   4  -8 1454.38   56.51
  -4   4  -8 1442.55   53.09
   4  -4  -8 1369.80   54.32
  -4  -4  -8 1533.57   54.42
  -4  -4   8 1412.18   65.01
   4   4  -8 1435.38   54.08
   4   4  -8 1394.89   53.04
   4   4   8 1433.79   63.03
   4  -4   8 1468.19   56.41
  -4   4   8 1487.17   55.19
   4   4   8 1351.21   52.08
  -4   4  -8 1436.71   80.87
  -4   4 -10 1759.67   68.95
   4  -4 -10 1728.95   65.54
   4   4 -10 1756.62   65.11
   4   4 -10 1762.50   63.76
   4   4  10 1694.30   62.89
   4  -4  10 1721.18   67.59
  -4   4 -10 1645.55   80.01
   4   4 -10 1732.74   81.74
  -4   4  10 1694.71   65.81
  -4  -4 -10 1741.00  105.52
  -4   4  10 1666.07   63.50
   4   4 -12  475.48   24.50
   4  -4 -12  461.92   24.70
   4   4 -12  474.36   24.25
   4   4  12  471.55   25.69
   4  -4  12  436.98   24.87
  -4   4  12  488.11   23.96
   4   4 -14  743.76   29.80
  -4   4 -14  776.45   31.86
   4   4 -14  761.82   31.68
  -4   4  14  793.96   31.53
  -4  -4  14  765.53   31.53
   0   5  -1 1886.54   87.39
  -5   0  -1 2055.86   65.24
   5   0  -1 2117.53   65.30
   0   5   3 5055.80  151.74
   0   5  -3 5268.12  152.37
   0   5  -3 5568.72  160.66
   0   5  -5  448.43   21.07
   0   5   5  459.50   20.93
   0  -5   5  418.34   19.48
   0   5   5  453.91   20.30
   0   5   5  475.22   20.39
   0   5  -7 3544.79  116.46
  -5   0  -7 3415.00  114.85
  -5   0   7 3553.42  128.62
   0   5   7 3369.02  115.05
   5   0   7 3499.26  116.90
   0   5   7 3470.88  115.16
  -5   0  -7 3374.18  142.91
  -5   0  -9  264.56   16.56
   0  -5  -9  272.18   16.41
   0   5  -9  262.46   16.10
   0   5  -9  281.55   17.48
   5   0  -9  264.80   18.11
  -5   0   9  232.76   24.72
   5   0   9  277.15   19.03
   0   5   9  279.37   17.94
   0   5   9  297.78   18.50
   0  -5  -9  308.05   31.87
  -5   0  -9  234.73   33.36
   5   0 -11 1425.27   56.21
   5   0 -11 1503.88   59.93
   0  -5 -11 1519.72   56.61
   0   5 -11 1514.57   58.66
   0   5 -11 1490.89   56.23
   5   0  11 1467.60   60.49
   0   5 -11 1470.62   77.28
   0   5  11 1489.36   58.86
  -5   0 -11 1289.46   88.62
   5   0 -13  126.32   12.85
  -5   0  13  162.10   12.68
   5   0  13  127.82   12.91
   0   5  13  138.54   11.93
   0   5  13  153.59   11.50
   1   5   0  119.98    9.27
  -1   5   0  138.74    9.81
  -1   5  -2 4124.09  134.41
  -1   5   2 4039.46  134.24
   1   5   2 4168.32  134.71
   1   5  -2 4190.08  134.70
   1   5  -2 4416.68  145.20
   5   1  -2 4094.48  131.86
   1   5   4   63.89    6.86
   1   5  -4   74.35    7.40
  -1   5   4   65.93    6.74
  -1   5  -4   61.05    6.46
   1  -5   4   66.19    4.48
   1   5  -4   61.06    9.28
  -1   5  -6 2474.56   81.37
   1   5  -6 2356.11   80.84
  -5  -1   6 2392.93   91.35
  -1  -5   6 2296.94   81.97
  -5   1   6 2473.35   91.50
   5   1   6 2329.16   89.21
  -1   5   6 2366.85   80.18
  -5  -1  -6 2265.21  102.32
   1  -5   6 2302.19   78.57
  -1   5   6 2333.19   80.10
   1   5   6 2317.96   80.09
   5  -1   6 2389.27   81.52
   1   5   6 2332.84   79.72
   5   1   6 2326.46   79.16
  -5   1  -6 2456.96  105.51
  -1   5  -8  308.71   18.66
  -5   1  -8  315.37   18.41
   1   5  -8  301.89   16.66
  -5   1   8  270.73   25.05
  -1   5  -8  295.36   16.60
   1  -5  -8  285.64   16.38
   5  -1  -8  340.49   19.50
  -1   5  -8  284.45   17.36
   1   5  -8  313.71   17.43
  -5  -1   8  276.71   24.85
  -1  -5  -8  308.35   16.61
   1   5   8  315.01   17.98
  -1   5   8  298.25   18.03
   5   1   8  306.45   18.87
   1  -5   8  282.77   16.34
   5   1   8  296.46   23.96
   5  -1   8  241.66   21.99
   5  -1   8  293.00   18.89
  -1   5   8  284.13   17.70
  -1  -5  -8  324.54   32.87
   1  -5  -8  300.47   28.75
  -5  -1  -8  279.13   32.87
  -5   1  -8  242.33   30.36
   5  -1 -10  401.55   21.97
  -5   1 -10  426.54   23.67
   5   1 -10  464.20   23.69
  -1   5 -10  463.81   23.28
  -1  -5 -10  410.76   22.33
   1  -5 -10  408.98   22.42
   1   5 -10  451.30   24.08
   5  -1 -10  420.55   25.13
  -1   5 -10  455.88   24.62
   5  -1  10  406.92   25.58
   5   1  10  456.16   25.88
   1   5  10  456.88   25.03
   1   5 -10  426.48   36.40
  -1   5  10  434.41   24.58
   1   5  10  465.85   24.54
  -1   5  10  464.57   25.45
  -5  -1 -10  405.19   45.77
  -5   1  10  443.46   22.33
  -1  -5 -10  425.74   41.43
  -5   1 -10  445.84   46.95
   5   1 -12  608.07   28.20
   5  -1 -12  561.17   26.35
   1   5 -12  583.35   26.95
   5  -1 -12  624.78   31.98
  -1   5 -12  605.03   26.71
   1  -5 -12  592.14   27.61
   5   1  12  556.67   30.13
  -5   1  12  602.02   29.85
   5  -1  12  579.30   31.38
   1   5  12  611.17   29.44
  -1   5  12  571.83   29.29
  -1   5 -14   47.30    5.89
   1   5 -14   42.14    5.73
  -1   5 -14   47.78    7.37
   5  -1 -14   41.51    8.05
  -5   1  14   51.36    6.56
   5  -1  14   46.74    7.34
   5   1  14   38.63    6.63
  -5  -1  14   42.15    6.10
  -1   5  14   39.69    5.31
   1   5  14   42.54    5.63
   2   5   1  113.06    9.25
   2   5  -1   93.22   16.69
  -2   5   1   94.38   10.04
  -5   2  -1   92.36    9.66
  -2   5  -1   96.31   16.27
  -2   5  -1  116.28   10.80
   5   2  -1   80.64    9.49
   5   2  -1  112.69    8.89
   2   5   3  439.58   21.23
  -2   5  -3  422.23   20.95
   2   5  -3  428.00   21.16
  -2   5   3  418.42   20.71
   2   5  -3  506.47   26.97
   5   2   3  403.88   23.20
   2   5   3  420.92   22.62
  -2   5  -3  440.84   25.35
  -2   5  -5  160.64   11.06
  -2   5  -5  156.34   10.65
  -2   5   5  150.56   10.58
  -5   2   5  161.30   14.56
   2   5   5  140.19   12.91
   5   2   5  156.36   14.79
   5   2   5  134.15    9.75
  -2   5  -5  128.72   14.07
   2   5  -5  135.77   14.47
   2   5   5  148.98    9.95
  -2   5   5  154.44   10.17
   2  -5  -5  141.67   13.96
   5   2   5  164.57   10.13
  -5   2  -5  147.18   19.58
  -2   5  -7  535.16   26.65
  -2  -5   7  542.40   29.00
  -5   2   7  622.43   36.24
  -2   5  -7  580.57   25.20
   5   2  -7  551.54   25.80
  -2   5  -7  601.23   26.24
  -5  -2   7  548.04   34.64
   5  -2  -7  577.08   27.07
   2   5  -7  568.16   24.82
   2   5   7  570.65   26.05
   2  -5   7  540.56   25.01
   5   2   7  568.61   33.72
   5  -2   7  521.11   26.91
  -2   5   7  583.21   26.59
  -2   5   7  590.94   26.57
   2   5   7  550.40   25.33
   2  -5  -7  494.26   34.09
  -5  -2  -7  544.49   43.14
  -5   2  -7  518.71   43.13
  -5   2  -7  584.29   44.59
   5  -2  -9  180.14   12.29
  -5   2  -9  171.92   14.52
  -2   5  -9  160.50   14.15
   2  -5  -9  151.50   12.22
   2   5  -9  158.83   12.27
  -2  -5  -9  167.25   12.49
   5   2  -9  163.41   13.62
  -2   5  -9  147.11   12.82
   5   2  -9  176.47   12.68
  -5  -2   9  152.49   19.34
   2   5  -9  189.76   13.76
  -2   5  -9  167.74   12.70
   5  -2  -9  163.90   14.76
   5  -2   9  182.54   15.43
  -2   5  -9  174.08   21.03
   2  -5   9  149.55   12.32
  -2   5   9  161.62   13.56
   2   5  -9  123.80   18.51
   2   5   9  146.94   12.71
   5   2   9  148.18   13.56
  -5  -2  -9  138.86   24.10
  -2  -5  -9  140.62   24.48
  -5  -2  -9  123.62   26.06
   5   2 -11  290.22   18.77
   5   2 -11  310.46   19.95
  -2   5 -11  324.28   18.38
   2  -5 -11  296.76   18.46
   2   5 -11  340.41   20.29
   5  -2 -11  350.66   22.50
   2   5 -11  317.54   19.03
   2   5  11  282.57   19.88
   2   5  11  339.84   20.25
  -5   2  11  313.25   20.34
   5  -2  11  333.49   22.43
   5   2  11  305.87   20.93
  -2   5  11  322.87   20.70
   2  -5  11  284.86   18.14
  -5   2  11  348.58   19.15
   5   2 -13   87.78    9.15
   2   5 -13  114.74   10.40
   2   5 -13  140.64    9.90
   2  -5 -13   90.19    8.95
   5  -2 -13  121.41   12.99
  -2   5  13  120.53   11.03
   2   5  13   99.45    9.46
  -5  -2  13  115.64   10.57
   5   2  13  109.40   11.05
   5  -2  13  116.49   12.54
  -5   2  13  117.70   11.00
  -2   5  13  112.83   10.02
   3   5   0 2725.25   93.44
  -3   5   0 2603.96   97.39
   5   3   0 2870.29   94.40
   3   5   2   76.37    7.82
   3   5  -2   66.15    7.66
  -5   3  -2   58.67    3.44
  -5   3   2   66.61    7.36
   5   3   2   90.96    9.64
  -3   5  -2   54.38    8.47
   3   5  -2   51.76   10.84
  -3   5   2   53.19    7.83
   3   5   2   70.96    8.44
  -5   3  -2   67.60    8.97
   5   3  -2   70.30    8.60
  -3   5  -2   64.32   11.80
  -3   5  -4 2799.68   95.24
  -3   5   4 2717.12   94.81
   3   5  -4 2916.46  102.25
  -3   5  -4 2766.44  100.03
  -3   5  -4 2750.47  100.66
   5   3   4 2734.55  100.48
   3   5   4 2833.97   99.50
  -3   5  -4 2907.90  107.69
  -5   3  -4 2775.44  106.99
  -5   3  -4 2715.00  109.82
   3  -5  -4 2736.65   93.31
  -3   5  -6  139.21   10.95
  -3   5  -6  128.86    9.76
  -5   3   6  145.02   15.14
   3   5   6  113.96    9.06
   3  -5   6  113.89    9.97
   3   5   6  120.01   12.72
  -3   5   6  106.73    9.50
   5   3   6  120.59    9.80
   3   5   6  123.62    9.55
  -3   5  -6  126.96   15.01
   5   3   6  142.22   15.15
   5  -3   6  115.26   10.63
  -5   3  -6  101.60   17.33
   5   3   6  124.67    9.67
  -5   3  -6  117.42   18.72
  -3   5  -6  138.66   19.35
  -5   3  -8  595.27   30.00
  -3   5  -8  621.39   29.89
   3   5  -8  569.41   26.75
   5  -3  -8  571.31   29.12
  -3   5  -8  594.10   27.12
  -5  -3   8  584.49   38.20
   5   3  -8  576.69   26.87
   3  -5  -8  573.48   27.07
   3   5  -8  584.84   27.26
   5   3  -8  572.94   27.76
   3   5   8  649.59   27.85
   5   3   8  622.81   36.88
   3  -5   8  596.86   28.43
  -3   5  -8  644.84   39.92
   5  -3   8  595.60   30.25
   3   5  -8  618.35   39.68
   3   5   8  624.14   28.75
  -5  -3  -8  541.46   45.92
  -5   3  -8  718.09   52.91
   5   3 -10  263.37   17.66
  -5   3 -10  273.02   20.15
   3   5 -10  270.34   16.90
  -3   5 -10  257.96   16.62
   5  -3 -10  299.52   20.25
   3   5 -10  297.65   18.18
   5   3 -10  276.22   18.19
   5   3 -10  289.00   17.52
   3  -5 -10  255.03   17.14
   3   5 -10  286.89   29.17
  -5   3  10  262.10   18.34
   3  -5  10  284.80   18.32
   5   3  10  271.44   19.09
   3   5  10  243.28   17.03
  -3   5 -10  236.07   26.01
   5  -3  10  278.08   20.39
  -5  -3 -10  209.23   35.13
  -5   3  10  301.14   17.64
  -3  -5 -10  176.30   30.32
   5   3 -12  155.36   12.81
   3   5 -12  150.16   12.97
   3   5 -12  152.48   11.98
   5   3 -12  141.90   12.67
   5  -3 -12  156.05   14.37
   3  -5 -12  144.82   12.18
   3   5 -12  131.49   12.23
   5  -3  12  154.64   15.23
   3   5  12  142.48   11.82
  -3   5  12  181.42   14.60
   5   3  12  144.09   13.28
   3   5  12  153.29   13.41
  -5   3  12  168.97   14.10
  -3   5  12  156.82   12.49
  -5   3  12  130.02   11.28
   3   5 -14  307.24   17.57
   5   3 -14  316.51   16.31
   3   5 -14  305.44   15.64
  -5   3 -14  310.76   16.04
  -3   5 -14  310.05   17.53
   5  -3 -14  301.87   17.47
  -5  -3  14  300.92   16.05
  -3   5  14  287.28   15.83
   3   5  14  328.43   15.55
  -5   4  -1 1469.00   48.64
  -5   4   1 1472.69   52.97
   4   5  -1 1530.28   63.91
  -4   5  -1 1471.21   59.78
   5   4  -1 1610.91   59.87
   5   4  -1 1464.52   55.23
  -5   4  -1 1463.30   58.27
  -4   5  -1 1483.67   62.71
  -4   5   1 1466.87   59.53
  -5   4  -1 1418.57   53.52
  -4   5  -1 1423.05   59.58
  -5   4   1 1423.66   54.09
  -5   4  -1 1477.98   60.40
  -4   5   3  572.20   28.18
  -5   4   3  577.04   28.09
  -5   4  -3  584.71   30.02
   5   4   3  550.42   30.00
   5   4  -3  557.36   29.31
   4   5   3  559.81   29.57
  -4   5   3  576.57   30.09
   4   5  -3  651.06   33.62
  -4   5  -3  609.16   32.99
  -4   5  -3  588.90   31.25
  -5   4  -3  546.99   31.63
  -4   5  -3  583.21   32.17
  -4   5  -3  524.77   34.01
  -5   4  -3  548.08   34.90
  -4   5  -5 3157.02  103.43
  -4   5   5 3133.72  102.96
  -5   4   5 3007.17  105.68
  -4   5  -5 2830.79  108.14
   5   4   5 2918.23   98.06
   5   4   5 3026.65  110.04
   4   5   5 3072.94  109.11
   4   5  -5 3128.05  110.98
  -4   5   5 3041.21   99.54
   5   4  -5 2907.16  107.12
   4   5   5 3052.95   98.25
  -5   4  -5 2895.65  106.71
  -5   4  -5 3055.79  109.18
  -5   4   5 2969.48   98.75
  -4   5  -5 2990.06  109.50
  -5   4   5 2808.12   97.25
   4   5   5 2921.39   98.02
  -5   4  -5 2945.12  118.66
  -5   4  -5 3010.07  122.20
  -4   5  -5 3047.90  118.83
   5   4   5 2965.20   98.36
  -4   5  -7  200.87   15.05
  -4   5  -7  183.45   12.87
  -4  -5   7  167.35   18.27
   5   4  -7  217.36   13.75
   5  -4  -7  193.65   14.06
   4   5  -7  193.99   13.15
   4  -5  -7  225.45   14.16
  -5   4  -7  184.55   12.73
   4   5  -7  194.23   13.06
   4   5   7  212.13   18.84
  -4  -5  -7  168.01   22.04
   5  -4   7  206.56   15.48
   4  -5   7  182.27   14.24
  -4   5   7  210.58   14.46
   4   5   7  219.91   13.49
   5   4   7  231.83   20.29
  -5  -4  -7  190.71   25.73
  -4   5  -7  220.87   21.29
  -5   4   7  214.06   14.22
   4   5  -7  228.13   21.57
   5   4   7  201.43   13.90
   4   5   7  209.02   13.97
  -5   4   7  202.50   12.84
  -4   5  -7  188.25   24.94
  -5   4  -7  217.82   27.07
  -4   5  -9 1852.14   72.17
  -5   4  -9 1992.00   73.84
  -4   5  -9 1868.15   68.15
  -5  -4   9 1888.76   85.16
   4   5  -9 1954.34   69.06
   5  -4  -9 1837.96   70.62
   5   4  -9 1876.80   69.15
   4  -5  -9 1901.19   69.33
   4   5  -9 1831.71   68.00
   5   4  -9 1824.13   68.10
   4  -5   9 1884.96   71.55
   4   5  -9 1915.95   86.99
  -5   4   9 1841.06   70.07
  -5   4  -9 1851.81   83.98
   5  -4   9 1968.72   73.97
   4   5   9 1976.33   71.13
   5   4  -9 1836.24   83.61
  -4   5   9 1937.29   71.34
  -4   5  -9 1805.86   85.24
   4   5   9 1827.43   67.79
  -4   5   9 1816.83   68.18
  -5   4   9 1877.40   68.27
   4   5 -11   41.40    7.32
   5   4 -11   42.35    7.78
   5   4 -11   49.04    7.84
   5  -4 -11   33.71    8.33
   4  -5 -11   46.99    8.18
   4   5 -11   40.62    7.48
   4   5 -11   41.43    7.04
   5   4 -11   33.05    6.84
  -5   4  11   49.45    8.75
   4  -5  11   33.20    7.23
   5  -4  11   45.03    9.70
  -5   4  11   34.35    7.30
  -4   5  11   37.77    7.57
   5   4 -13  968.36   39.87
   4   5 -13 1149.59   43.20
  -5   4 -13 1117.10   41.82
  -4   5 -13 1168.12   43.52
   5   4 -13 1093.96   41.70
   4   5 -13 1018.40   40.55
   5   4 -13  988.01   39.37
   4  -5 -13  966.50   39.19
   4   5 -13 1005.70   39.08
   5   4 -13 1014.39   39.64
   5  -4 -13 1016.39   41.15
   5  -4  13  933.09   40.62
  -5   4  13 1047.77   42.17
   5   4  13 1036.27   41.47
  -4   5  13 1034.77   42.05
  -5   4  13  975.25   38.50
  -4   5  13 1026.35   39.41
   5   5   0 2467.92   87.45
  -5   5   0 2388.85   87.80
  -5   5   2   70.66    8.02
  -5   5  -2   78.82   10.83
   5   5   2   66.16    9.02
  -5   5  -2   64.41   14.13
  -5   5   2   69.84   10.01
   5   5  -2   35.21   11.52
  -5   5  -2   73.55    9.69
  -5   5  -2   70.04   11.43
  -5   5   4 2934.34  100.80
  -5   5   4 2781.33  101.36
   5   5  -4 2892.36  104.12
  -5   5  -4 2850.87  103.91
  -5   5  -4 2856.07  103.59
   5   5   4 2804.83  102.65
  -5   5   4 2703.08   92.34
  -5   5  -4 2809.21  107.93
  -5   5   4 2609.45   90.88
  -5   5  -6  124.79   11.52
   5   5   6  150.36   16.01
  -5   5  -6  145.54   16.35
  -5   5   6  146.39   11.35
   5   5   6  144.68   10.67
   5   5  -6  133.39   16.00
  -5   5  -6  104.33   17.80
  -5   5   6  136.30   10.35
  -5   5  -8  680.78   33.60
   5   5  -8  631.54   30.54
   5   5  -8  647.89   30.08
   5  -5  -8  687.06   31.68
  -5   5  -8  691.90   30.36
   5   5  -8  681.50   30.21
  -5  -5   8  637.17   41.81
   5   5  -8  740.90   44.28
  -5   5   8  718.00   32.56
   5  -5   8  707.53   34.77
   5   5   8  710.87   32.01
   5   5   8  656.15   39.14
  -5   5  -8  643.05   41.27
  -5   5   8  638.42   29.85
  -5   5 -10  383.27   24.37
   5   5 -10  334.69   20.74
   5   5 -10  337.28   19.66
   5  -5 -10  338.60   20.77
   5   5 -10  331.91   19.68
  -5   5 -10  316.36   18.21
   5  -5  10  345.36   23.09
  -5   5  10  348.37   21.94
   5   5  10  346.97   21.43
  -5   5 -10  282.61   29.04
   5   5 -10  299.18   29.80
  -5   5  10  343.72   20.33
  -5  -5 -10  325.92   45.35
   5   5 -12  152.93   12.64
   5   5 -12  138.21   11.34
   5  -5 -12  120.84   11.65
  -5   5  12  156.65   13.54
   5  -5  12  160.07   13.53
  -5   5  12  165.40   12.43
   5   5 -14  236.56   13.33
   0   6   0 1921.76   68.36
   0   6  -2 2586.00   92.03
   0   6   2 2798.65   92.69
   0   6  -2 2760.74  107.84
   0   6  -4   65.17    7.74
   0   6   4   70.18    7.72
   0   6  -4   63.99   10.78
   6   0  -6  412.87   19.76
  -6   0   6  414.35   27.94
   0   6  -6  490.31   31.09
  -6   0  -6  405.47   35.76
   0   6   6  404.94   20.34
   0   6   6  440.60   21.25
   6   0   6  409.38   19.60
  -6   0   6  401.78   18.24
   6   0  -8   31.32    6.12
  -6   0  -8   27.03    5.73
  -6   0   8   44.72   10.07
   0   6  -8   38.45    6.75
   0   6  -8   34.38    5.88
   6   0   8   29.07    8.48
   6   0   8   46.70    7.71
   0   6   8   33.83    7.10
   0   6  -8   43.93   10.87
  -6   0   8   27.25    5.47
  -6   0  -8   21.32   11.43
   0  -6  -8   33.70   10.67
   6   0 -10    3.33    4.48
   0   6 -10    0.85    4.51
   6   0 -10   -1.07    5.87
   0  -6 -10    2.95    4.34
   0   6 -10    1.78    4.78
   0   6 -10    2.74    6.47
   0   6  10    6.04    5.33
   6   0  10    9.18    5.65
   0   6  10    2.02    4.99
  -6   0 -10    4.55    8.80
   6   0 -12  172.55   13.01
   0   6 -12  192.17   13.21
   6   0 -12  214.89   16.85
  -6   0  12  210.99   15.28
   0   6  12  169.83   14.47
   6   0  12  217.63   17.25
   0   6 -14    9.69    3.39
   0   6 -14   14.92    5.50
  -6   0 -14   10.30    2.92
   6   0 -14   11.66    5.51
   6   0  14    3.03    4.21
  -6   0  14   15.28    4.15
   0   6  14    6.35    3.29
   1   6   1    3.49    3.16
  -1   6   1    8.36    3.63
   6   1  -1    1.81    2.74
   1   6  -1   -1.89    8.37
   1   6  -3  880.03   35.69
  -1   6   3  811.74   34.40
   1   6   3  860.97   35.36
  -1   6  -3  826.18   34.62
   6  -1  -3  781.68   29.22
   1   6  -3  891.60   44.00
  -1   6   5   65.21    7.65
   1   6   5   74.23    8.11
   1   6  -5   78.08    7.83
   6  -1  -5   62.18    6.27
   1   6  -5   66.98    7.82
  -1   6  -5   71.69    7.98
   6   1  -5   88.23    7.69
  -6   1   5   76.28   10.53
   1   6  -5   88.60   12.67
   1   6   5   83.64    7.45
   6   1   5   67.87    7.43
   1   6   5   65.21    7.16
  -1   6   5   75.98    7.91
  -1   6   5   71.49    7.18
   6   1   5   74.67    7.22
  -6   1   5   67.09    6.28
  -6   1  -5   70.75   14.75
   6   1  -7  439.62   21.45
   6  -1  -7  403.29   20.34
  -1   6  -7  453.16   23.37
  -6  -1   7  419.82   30.62
  -1   6  -7  454.16   21.71
   6   1  -7  426.52   22.34
   1   6  -7  447.54   21.09
   1   6  -7  445.90   21.08
  -1   6  -7  432.04   20.82
  -6   1   7  417.67   30.10
   6  -1  -7  421.52   22.97
   6   1   7  380.06   28.65
  -1   6   7  478.10   23.20
   1   6   7  430.90   22.26
   1   6   7  440.74   22.03
   6  -1   7  414.34   22.91
   1   6  -7  463.53   32.75
  -6   1   7  432.13   20.15
  -6  -1  -7  422.87   39.26
  -6   1  -7  394.13   38.05
  -6   1  -7  429.20   39.12
   1  -6  -7  456.86   33.08
   6  -1  -9  108.34    9.98
  -6   1  -9  107.64   11.51
   6   1  -9   92.71   10.21
   1   6  -9  104.29   10.40
   1  -6  -9   95.08    9.45
  -1  -6  -9  110.96   10.06
  -1   6  -9   91.32   10.26
   1   6  -9  105.30   10.04
   6  -1  -9   91.49   11.48
  -1   6  -9   94.24   10.03
  -6  -1   9   82.67   15.10
  -6   1   9  105.82   16.46
   1   6  -9  125.48   19.02
  -1   6   9  114.49   11.50
   1   6   9   97.25   10.66
   6   1   9  115.39   12.22
   6  -1   9   82.07   11.08
  -1   6   9  106.65   11.48
  -6  -1  -9   74.79   19.25
  -6  -1  -9   97.99   23.37
  -1  -6  -9  125.03   21.89
  -6   1   9   88.70    9.37
   6  -1 -11  291.63   18.25
   6   1 -11  328.68   19.97
   1  -6 -11  307.48   18.61
  -1  -6 -11  361.72   19.55
   6  -1 -11  388.68   23.87
   1   6 -11  350.48   19.99
   1   6 -11  347.42   20.69
  -1   6 -11  366.41   19.91
   6   1  11  325.94   21.93
  -1   6  11  339.49   21.64
   1   6  11  338.78   21.20
  -6   1  11  349.30   21.11
   6  -1  11  334.15   22.91
  -6   1  11  341.93   18.70
   6   1 -13   69.45    7.34
  -1   6 -13   90.44   10.49
   1   6 -13   75.91    8.51
   6  -1 -13   74.61   11.13
   1   6 -13   83.39    7.65
  -6   1  13   79.57    8.96
  -1   6  13   58.78    8.06
   6   1  13   77.24    9.54
  -6  -1  13   71.70    8.45
   1   6  13   59.86    7.54
   6  -1  13   69.66   10.20
  -1   6  13   95.76    8.95
   1   6  13   82.79    8.51
   2   6   0  577.04   27.17
   6   2   0  542.63   26.82
  -2   6  -2  417.72   21.08
   2   6   2  386.26   20.61
   2   6  -2  386.76   20.85
  -2   6   2  375.69   20.39
   6   2  -2  392.20   19.41
  -2   6  -2  396.34   30.97
   2   6  -2  377.83   30.55
   6   2  -2  349.29   18.39
  -6   2  -2  417.27   20.06
  -2   6  -4  563.53   27.57
   6   2  -4  613.17   25.04
   2   6   4  604.35   28.23
   2   6  -4  592.36   28.45
  -2   6   4  602.64   27.91
  -2   6  -4  613.52   35.15
  -6   2  -4  650.08   40.70
   2   6  -4  630.38   35.34
   6   2   4  595.56   31.97
   6   2   4  600.24   25.02
  -2   6  -6  208.53   13.90
   6  -2  -6  198.35   11.81
  -2   6  -6  192.32   13.57
   6   2  -6  217.05   13.19
  -6   2   6  186.68   18.27
   6  -2   6  183.08   13.56
   2  -6   6  192.06   12.17
  -2   6   6  225.15   14.30
   2   6   6  220.67   13.66
   6   2   6  208.00   13.48
   2   6  -6  202.01   19.97
   6   2   6  189.27   18.22
  -2   6  -6  254.22   21.91
   2   6   6  212.21   13.04
   6   2   6  179.28   12.60
  -6   2  -6  181.78   24.92
  -6   2   6  194.82   12.01
  -6   2  -6  148.00   21.92
  -2   6  -8  147.12   13.03
   6   2  -8  137.13   11.54
  -6   2  -8  154.16   13.73
   6  -2  -8  126.34   10.21
  -6   2   8  140.75   17.94
  -2   6  -8  124.10   10.75
   6   2  -8  106.60   10.96
   6  -2  -8  122.33   12.53
   2   6  -8  126.97   10.67
   2  -6  -8  132.97   10.67
  -6  -2   8  120.99   17.52
   2   6  -8  111.95   10.24
   6   2   8  113.73   15.52
  -2   6   8  126.45   11.89
   2   6   8  139.20   11.75
   2  -6   8  132.62   10.91
   2   6   8  121.96   11.36
   2   6  -8  117.16   17.43
   6  -2   8  125.14   12.71
  -2   6  -8  119.40   17.91
  -6   2  -8  153.77   25.55
  -6  -2  -8  155.46   25.33
  -6   2   8  125.29   10.33
  -6   2  -8  103.42   21.31
  -6   2 -10    1.11    5.02
   6   2 -10    6.21    5.36
  -2   6 -10    2.46    3.88
   2   6 -10    4.20    4.87
   6   2 -10   11.41    6.10
   2  -6 -10   10.76    5.20
   6  -2 -10    9.68    7.02
  -6  -2  10    5.27    6.24
   2   6 -10    7.95    4.61
  -2  -6 -10   -1.48    4.12
   2   6  10   10.28    5.42
  -6   2  10    9.33    5.70
  -2   6  10   -1.04    5.30
   6   2  10    9.71    6.08
  -2   6 -10    8.12    7.40
   6  -2  10   11.29    6.96
   2   6 -10    2.79    6.02
  -6  -2 -10   -5.07    9.80
  -6   2  10    6.95    4.72
   6   2 -12    5.50    4.74
   2   6 -12   13.17    4.97
   2  -6 -12    2.62    4.00
   6   2 -12    4.30    5.38
   6  -2 -12    1.20    7.05
   2   6 -12    2.15    3.73
  -2   6 -12    6.27    3.83
  -6   2  12    5.46    5.49
  -2   6  12    7.57    5.33
   6  -2  12    3.74    6.70
   6   2  12    1.95    4.71
   2   6  12   -2.42    4.20
  -2   6  12    0.78    4.61
  -6   2  12    5.01    3.83
   6   2 -14   44.07    5.49
  -2   6 -14   45.18    5.34
   2   6 -14   46.45    7.51
   2   6 -14   48.36    5.65
  -2   6 -14   53.84    7.86
   6   2 -14   54.13    6.88
   6  -2 -14   38.09    7.43
  -6  -2  14   55.01    5.88
  -6   2  14   48.87    6.05
   2   6  14   51.76    5.55
   3   6   1  254.67   16.17
   6   3   1  249.97   17.05
  -3   6  -1  260.44   18.96
   6   3  -1  247.64   15.62
  -3   6  -1  265.09   22.35
   3   6  -1  237.52   21.73
  -3   6   1  246.34   18.25
  -3   6  -3   38.47    6.29
  -3   6   3   36.49    6.24
  -6   3   3   34.95    6.67
  -3   6   3   26.94    6.50
   6   3   3   19.14    6.24
   6   3  -3   45.62    7.07
  -6   3  -3   32.41    6.35
   3   6  -3   32.56    9.99
  -3   6  -3   39.99    7.83
  -3   6  -3   34.10   10.21
  -3   6   5  891.85   38.86
  -3   6  -5  932.27   39.51
   6   3  -5  930.33   36.28
  -3   6  -5  977.71   48.22
  -6   3   5  878.94   35.34
  -3   6   5 1010.53   37.88
   3   6   5  915.43   35.86
   6   3   5  947.20   35.99
   3   6  -5  987.20   48.64
   6   3   5  951.07   45.70
   3   6   5  932.40   35.68
  -6   3  -5  936.05   44.99
   6   3   5  901.80   36.20
  -6   3  -5  917.50   55.07
  -6   3  -5  939.21   52.84
  -6   3   5  931.92   35.28
  -3   6  -7  271.13   17.65
   6   3  -7  282.74   16.49
  -6   3   7  245.15   22.69
   3   6  -7  268.22   15.13
   3  -6  -7  242.80   14.73
  -3   6  -7  234.11   15.13
   3   6  -7  274.13   15.73
   6  -3  -7  274.66   18.18
  -6  -3   7  292.42   25.69
   6   3  -7  240.17   15.43
  -3  -6   7  248.86   20.01
   3   6   7  280.75   16.32
   3  -6   7  244.96   15.81
   3   6   7  285.67   16.54
   6  -3   7  273.53   18.31
  -3   6  -7  275.16   25.33
   6   3   7  263.46   16.38
   3   6  -7  253.12   24.64
   6   3   7  301.05   24.13
  -6   3  -7  226.78   28.31
  -6   3  -7  272.93   31.45
  -6   3   7  252.21   14.97
  -6  -3  -7  227.30   30.62
  -6   3  -9 1176.05   49.59
   6   3  -9 1091.90   44.24
  -3   6  -9 1091.52   46.62
   6   3  -9 1068.49   44.06
   6  -3  -9 1077.08   47.45
   6   3  -9 1066.32   43.44
  -3   6  -9 1066.00   43.16
  -6  -3   9 1000.12   59.22
   3   6  -9 1043.27   42.59
   3  -6  -9 1048.79   42.66
   3   6  -9 1051.60   42.90
   3  -6   9 1009.49   43.24
   3   6   9 1043.98   44.40
   3   6   9 1056.83   43.70
   6  -3   9  924.33   46.38
   3   6  -9 1070.31   61.26
  -6   3   9 1037.31   44.19
  -3   6  -9 1089.13   61.16
  -6   3   9 1099.03   43.09
  -3  -6  -9 1058.06   73.98
  -6   3  -9 1000.31   70.48
   6   3 -11   93.02   10.54
   3   6 -11  107.04   11.10
   3   6 -11  101.94   10.48
   6   3 -11   83.37   10.08
  -3   6 -11   93.48    9.59
   6  -3 -11   93.43   12.36
   3  -6 -11   88.00    9.48
  -3   6  11   72.85   10.47
   6   3  11   88.11   10.88
  -6   3  11   75.11   10.30
   6  -3  11   84.11   12.83
   3   6  11   75.34    9.36
  -6   3  11   73.96    9.26
  -3   6  11   70.46    9.34
  -3   6 -13  112.38   11.49
  -6   3 -13  110.61    9.76
   6   3 -13  133.25   10.07
   3   6 -13  125.44   12.45
   3   6 -13  121.87   10.22
   6   3 -13  109.58    9.61
   6   3 -13  112.33    9.86
   3   6 -13  117.78    9.36
   3  -6 -13  120.92    9.04
   6  -3 -13  107.63   11.79
   6   3  13  113.41   10.58
  -6  -3  13  119.17   10.03
   6  -3  13   95.08   11.38
  -3   6  13  111.83   10.76
  -6   3  13  143.32   11.58
  -3   6  13  111.96    9.54
  -6   4   0  599.23   24.96
   6   4   0  600.34   29.53
  -6   4   0  594.36   31.06
  -6   4   2  120.76   10.41
  -4   6   2  113.41   12.73
   4   6   2  124.09   12.24
  -4   6  -2  120.14   13.14
   4   6  -2   69.05   14.96
   6   4  -2   79.84   13.17
  -6   4  -2   91.11   14.15
  -4   6  -2   71.60   16.08
  -6   4   2  121.15    9.18
  -6   4  -2  123.33   14.91
  -6   4  -2  107.01   11.56
   4   6  -4  595.38   24.81
   6   4  -4  577.75   25.31
  -6   4   4  644.14   32.12
   6   4  -4  632.77   32.04
  -4   6  -4  572.56   33.45
  -4   6   4  581.00   31.84
  -6   4   4  577.57   25.05
  -4   6   4  619.10   26.66
   6   4   4  566.81   23.94
  -6   4  -4  655.24   35.26
  -6   4  -4  612.05   31.63
   4   6   4  586.92   32.22
   6   4   4  602.02   33.73
   4   6  -4  566.95   35.90
  -4   6  -4  648.51   37.36
  -6   4  -4  628.49   37.58
   4   6   4  603.22   24.44
   6   4   4  589.85   24.96
  -6   4   4  556.38   24.48
  -4   6  -6    7.03    3.41
   6   4  -6   12.90    4.83
  -4   6  -6   14.28    4.35
   4   6  -6   11.97    4.18
   6   4   6    4.87    4.97
   4   6   6   11.93    4.21
  -6   4  -6    7.18    4.81
   6   4   6    5.83    3.55
  -6   4   6    9.46    4.39
   4   6   6   17.40    6.43
   4   6   6   13.23    4.28
  -6   4  -6    5.63    4.52
   6   4  -6    7.16    4.60
   4   6  -6   13.02    6.73
  -4   6  -6   20.13    7.30
  -4   6   6    9.93    5.12
  -6   4   6   16.50    4.60
  -6   4  -6   15.50    9.34
   6   4   6    8.83    4.06
  -6   4  -6   11.66    9.34
  -4   6   6   10.76    4.29
  -4   6  -8  422.04   24.82
   6   4  -8  433.87   23.36
  -6   4  -8  435.86   26.15
   4  -6  -8  435.23   22.56
  -6   4  -8  422.76   21.72
   6  -4  -8  422.18   24.64
   4   6  -8  427.41   22.40
  -4   6  -8  454.43   22.85
   6   4  -8  466.36   23.25
   6   4  -8  403.02   22.20
   4   6  -8  436.76   21.90
  -6  -4   8  421.27   35.12
   4   6   8  407.88   22.77
  -6   4   8  429.33   23.55
   4   6  -8  490.80   36.68
  -4   6   8  460.82   24.83
   6  -4   8  404.78   26.03
   4  -6   8  481.65   25.10
   4   6   8  473.58   23.18
   6   4   8  432.34   23.44
  -4   6  -8  505.39   36.67
   6   4   8  442.05   31.32
  -6   4  -8  381.33   30.17
   6   4  -8  435.78   31.59
  -6   4   8  459.89   22.62
  -6   4  -8  385.80   39.42
  -6  -4  -8  460.05   45.66
  -4   6   8  452.38   22.91
   4   6 -10   19.04    6.63
   6   4 -10   17.64    6.36
  -4   6 -10   23.67    7.42
  -6   4 -10    5.43    7.32
   6   4 -10   16.48    5.58
   6   4 -10   11.90    5.53
   4   6 -10   18.32    5.40
   4   6 -10   21.83    5.86
   6  -4 -10    5.52    5.76
   4  -6 -10   22.04    5.76
  -4   6 -10    6.35    4.36
   4   6  10   17.47    6.02
   6  -4  10   11.27    7.35
   4  -6  10   17.39    5.92
  -6   4  10   10.90    6.07
  -4   6 -10   13.74    8.82
   4   6  10   18.69    5.68
   6   4  10   15.23    6.59
  -6   4 -10   11.31    7.59
   4   6 -10   19.65    9.01
   6   4 -10   15.96    7.96
  -6  -4 -10   17.88   14.12
  -6   4  10   14.20    6.00
  -4   6  10   13.90    6.18
  -4  -6 -10   35.40   16.21
   4   6 -12   25.81    6.56
  -4   6 -12   33.14    7.40
   4   6 -12   26.93    6.39
   6   4 -12   17.52    5.53
   4   6 -12   21.19    5.37
   6  -4 -12   25.09    7.21
   6   4 -12   15.32    5.12
   4  -6 -12   10.26    4.51
   4   6 -12   21.97    5.49
  -6   4  12   24.64    6.45
   6  -4  12   20.95    7.57
  -4   6  12   24.47    5.86
  -6   4  12   23.83    5.54
   6  -4 -14  101.45    7.57
  -4   6 -14  109.88    8.37
  -6   5   1    8.18    3.84
   6   5   1    6.49    4.18
  -5   6   1    1.37    4.41
  -5   6  -1    5.62    6.37
  -6   5   1    6.80    3.68
  -6   5  -1    6.98    5.40
   5   6  -3   11.43    4.18
  -6   5   3    7.05    4.13
  -5   6  -3   11.29   10.00
  -6   5  -3    5.66    7.29
  -6   5   3    5.48    4.39
  -6   5  -3    8.94    5.19
  -6   5   3    5.39    4.05
  -5   6   3    4.06    4.14
  -5   6  -3    1.47    4.03
   5   6  -3   19.75    9.00
   6   5  -3   -1.83    6.83
   5   6   3    5.01    4.69
  -5   6   3    6.51    4.71
   6   5   3    2.61    4.37
  -6   5  -3   -1.93    6.72
  -5   6  -3    5.70    2.01
  -6   5  -3    3.82    2.04
   5   6   3    6.26    3.03
  -6   5  -3    0.98    5.36
  -6   5  -3    6.92    5.01
  -5   6   3    3.68    3.83
  -6   5   3    1.59    3.90
   5   6  -5  421.12   20.60
   6   5  -5  431.19   21.21
  -5   6  -5  383.89   23.97
  -5   6   5  437.13   25.02
  -6   5   5  435.72   27.96
  -6   5   5  437.47   27.31
  -5   6  -5  445.58   29.51
  -5   6  -5  447.96   31.37
   6   5   5  410.24   19.80
  -6   5   5  466.93   22.00
  -6   5  -5  441.64   29.63
  -5   6   5  408.52   21.48
   5   6   5  447.72   29.01
   6   5   5  452.91   29.33
   5   6  -5  412.79   30.77
   5   6   5  414.12   19.72
  -6   5  -5  439.35   29.11
   6   5  -5  497.47   30.40
  -5   6   5  429.80   17.41
  -6   5   5  399.13   20.03
  -5   6   5  406.38   20.17
  -6   5  -5  445.77   33.57
   6   5   5  404.88   20.32
  -6   5   5  424.84   17.32
  -5   6  -7  324.67   20.08
   6   5  -7  314.62   18.39
  -6   5  -7  310.57   17.50
   5  -6  -7  285.20   17.26
   6  -5  -7  260.71   18.01
   5   6  -7  304.22   17.55
   6   5  -7  281.90   16.68
  -5   6  -7  316.55   17.96
   5   6  -7  276.26   16.01
   5  -6   7  323.32   21.23
   5   6   7  291.83   17.26
  -6   5   7  320.90   18.89
  -5   6   7  317.65   19.29
   6   5   7  268.71   24.34
   6   5   7  303.12   17.64
   6   5  -7  289.15   25.83
  -6   5  -7  271.41   25.15
  -5   6  -7  296.21   27.61
   6  -5   7  284.82   20.86
   5   6  -7  297.60   27.41
  -5   6   7  270.11   16.74
  -6   5   7  300.31   17.22
  -6   5  -7  276.80   30.97
  -5   6  -9  451.93   26.86
   5   6  -9  427.00   23.78
  -6   5  -9  451.33   27.40
   6   5  -9  418.85   23.84
   5   6  -9  431.58   23.14
   6  -5  -9  446.80   25.15
   5   6  -9  436.98   22.70
   5  -6  -9  451.64   24.01
   6   5  -9  408.87   22.99
   6   5  -9  478.39   23.73
  -5   6  -9  435.20   23.03
   6   5  -9  415.11   34.77
  -6   5  -9  395.78   33.79
  -6   5   9  412.99   24.55
  -5   6   9  450.87   25.71
   6  -5   9  492.48   29.96
   5  -6   9  427.52   26.07
   5   6  -9  457.11   38.20
  -5   6  -9  460.53   37.85
   5   6   9  471.96   24.66
   6   5   9  415.50   23.97
  -6   5   9  450.20   23.74
  -5   6   9  460.31   24.09
   6   5 -11  165.20   13.72
  -5   6 -11  154.56   13.94
   5   6 -11  152.02   13.09
   6   5 -11  175.52   13.40
   5   6 -11  152.00   12.36
   6   5 -11  140.43   12.10
   5  -6 -11  151.67   12.57
   6  -5 -11  138.54   13.34
   5   6 -11  136.53   11.61
   6   5  11  148.81   12.96
  -6   5  11  165.08   14.58
  -5   6  11  139.92   13.78
   5  -6  11  160.47   14.34
   5   6  11  142.67   12.75
   6  -5  11  146.99   15.51
  -6   5  11  149.87   12.51
  -5   6  11  161.90   13.08
   6   5 -13  103.48    8.95
  -6   5 -13  106.90   10.58
   5   6 -13  112.94    9.52
   6   5 -13  104.71   10.44
   5   6 -13  118.24   11.74
  -5   6 -13   94.33   10.70
   5  -6 -13  118.80    8.50
   5   6 -13  118.84    9.04
   6   5 -13  117.32    8.74
   6   5 -13  120.52    9.36
   6  -5 -13  125.39    9.90
  -6   5  13  147.61   11.45
  -5   6  13  117.67    9.01
  -6   6   0 2904.91   91.81
  -6   6   0 2887.24  103.83
   6   6   0 2778.46   92.76
   6   6   2 1493.89   53.76
   6   6  -2 1541.18   55.47
  -6   6   2 1613.56   60.26
  -6   6   2 1601.75   67.43
   6   6  -2 1669.63   68.45
  -6   6   2 1596.85   56.64
  -6   6  -2 1664.50   68.00
  -6   6  -2 1552.15   67.69
  -6   6   2 1523.71   51.95
  -6   6  -2 1545.85   69.45
  -6   6  -2 1476.16   51.83
  -6   6  -2 1608.79   59.05
   6   6  -4  419.62   20.31
  -6   6   4  411.50   27.71
  -6   6  -4  419.57   28.97
  -6   6   4  400.56   20.85
   6   6  -4  351.15   31.17
   6   6   4  395.98   27.23
   6   6   4  395.82   18.03
  -6   6  -4  336.72   30.93
  -6   6   4  389.32   16.65
  -6   6  -4  397.10   33.15
  -6   6  -4  391.17   16.67
  -6   6   4  373.21   19.32
  -6   6  -6   11.27    4.23
  -6   6  -6   13.97    4.88
   6  -6  -6    3.80    4.10
   6   6  -6   10.74    3.61
   6   6   6    8.75    5.62
  -6   6   6    9.27    5.16
  -6   6  -6   13.00    7.56
   6   6  -6   13.11    7.91
   6   6   6   14.45    4.27
  -6   6   6   12.46    4.69
  -6   6  -8   16.07    7.30
   6   6  -8   16.34    5.98
  -6  -6   8   13.53   10.14
   6   6  -8   23.88    6.14
   6   6  -8   18.82    4.98
   6  -6  -8   14.23    5.47
  -6   6  -8   16.76    5.48
   6   6   8   23.75    5.99
  -6   6   8   17.37    6.27
  -6   6  -8   38.67   11.43
   6   6  -8   20.92    9.13
   6  -6   8   21.45    8.54
  -6   6   8   23.34    6.11
   6   6 -10    1.89    5.25
  -6   6 -10    3.86    5.83
  -6   6 -10   11.61    6.06
   6  -6 -10    4.40    5.31
   6   6 -10    9.51    4.59
   6   6 -10    3.31    4.31
  -6   6  10    8.50    5.72
   6  -6  10    6.43    6.22
   6   6  10    8.21    5.22
  -6   6  10    4.33    5.17
  -6   6 -12   16.77    6.71
   6   6 -12   24.02    7.23
   6   6 -12   23.36    5.87
   6  -6 -12   27.78    5.67
   6   6 -12   26.05    5.11
   6   6 -12   23.30    5.46
   6  -6  12   26.56    6.36
  -6   6  12   26.25    6.42
   6   6  12   22.93    5.59
  -6   6  12   22.64    5.32
   0   7   1 1198.32   48.67
   0   7  -1 1351.07   61.67
   0   7  -3  163.65   12.95
   0   7   3  184.53   13.43
   7   0  -3  159.70    9.70
   0   7  -5 1180.15   43.55
   0   7  -5 1198.94   47.43
   0   7   5 1113.80   46.36
   7   0  -5 1120.16   42.60
   7   0   5 1068.45   43.07
   0   7   5 1167.94   44.71
   0   7   5 1100.62   42.52
   0   7  -5 1248.77   59.28
   7   0   5 1171.08   43.84
   0   7   7  162.38    9.40
   7   0  -7  172.56   12.34
   0   7  -7  163.66   11.81
  -7   0   7  161.93   18.93
   0   7  -7  136.42   11.23
   0   7   7  198.17   14.51
   7   0   7  184.33   19.34
   0   7   7  195.89   13.52
   0   7  -7  138.38   19.57
  -7   0  -7  166.58   25.37
   7   0  -9 1092.54   44.05
   0   7  -9 1034.41   43.31
   0   7  -9 1113.84   44.59
  -7   0   9  961.09   58.59
   7   0   9 1022.21   55.98
   0   7   9 1111.33   46.37
   7   0   9 1094.39   47.17
   0   7  -9 1004.73   62.42
  -7   0  -9  989.60   72.95
   7   0 -11   -0.79    4.20
   0   7 -11    1.64    4.35
   7   0  11   10.50    6.07
   0   7  11   -1.02    5.56
  -7   0  11    4.49    4.90
   0   7 -13  746.85   34.25
   0   7 -13  677.07   27.55
   7   0 -13  638.65   32.41
   7   0  13  695.66   33.17
  -7   0  13  686.47   30.13
   0   7  13  690.04   29.60
   0   7  13  765.62   30.10
   1   7   0 2145.31   78.64
  -1   7   0 2246.08   78.86
   1   7   2   12.80    4.45
   1   7  -2    6.83    3.88
  -1   7   2    9.12    3.85
  -1   7  -2    6.65    3.86
  -7   1  -2   10.46    3.53
   7   1  -2    9.05    3.26
   1   7  -2   15.36   12.12
  -1   7   4 1986.85   73.38
  -1   7  -4 1951.15   68.91
   1   7  -4 2171.94   69.37
   1   7   4 2073.34   74.36
   1   7  -4 2108.88   74.98
   7   1  -4 1965.92   69.27
  -1   7  -4 2040.72   74.05
   1   7   4 1897.87   70.15
   1   7  -4 2163.10   88.65
   1   7   4 1988.94   68.03
  -1   7   4 1989.82   71.18
   7   1  -6   19.66    5.20
   7  -1  -6   30.14    5.41
  -1   7  -6   26.51    5.46
  -1   7  -6   21.85    4.79
  -7   1   6   21.36    6.96
  -1   7  -6   28.70    4.77
   7   1  -6   26.35    5.30
   1   7  -6   23.09    4.53
   1   7  -6   29.23    9.28
   1   7   6   33.93    5.69
   7   1   6   16.50    6.62
  -1   7   6   24.87    5.72
   7   1   6   21.70    5.05
   1   7   6   26.89    5.91
   7   1   6   24.06    5.73
  -7   1   6   29.67    5.10
  -7   1  -6   27.36   12.83
   7  -1   6   30.10    5.10
  -7   1  -8  425.26   24.63
  -1   7  -8  380.39   22.67
   7  -1  -8  389.96   20.78
   7   1  -8  390.22   21.54
   1   7  -8  386.49   20.45
  -1   7  -8  405.98   21.48
   1   7  -8  373.64   20.46
  -7  -1   8  355.21   30.98
   7  -1  -8  361.89   23.20
  -7   1   8  375.07   31.23
   7   1  -8  382.49   22.19
  -1   7   8  389.19   22.85
   1   7   8  420.33   23.09
   7  -1   8  416.67   23.89
   7  -1   8  357.91   29.92
   1   7   8  407.01   22.07
   7   1   8  394.42   30.83
   1   7  -8  408.39   34.95
  -7   1  -8  391.88   40.71
  -1  -7  -8  394.77   36.56
  -7   1   8  403.19   20.29
  -7  -1  -8  422.45   43.35
  -7   1  -8  374.72   40.53
   7  -1 -10  374.05   21.29
   7   1 -10  412.53   23.01
  -7   1 -10  394.25   23.14
   7  -1 -10  427.41   26.27
  -7  -1  10  355.56   34.36
  -1   7 -10  419.44   22.70
   1   7 -10  411.14   22.80
   1   7 -10  395.27   22.05
   1  -7 -10  421.92   21.34
   1   7 -10  420.58   39.41
  -1   7  10  390.70   24.08
   1   7  10  416.34   24.09
   7  -1  10  433.37   26.51
   7   1  10  392.71   24.25
  -7  -1 -10  322.10   42.29
  -7   1  10  399.50   20.83
   7   1 -12    5.57    4.36
  -1   7 -12   12.61    7.32
   7  -1 -12   -3.47    6.71
   1   7 -12    1.39    3.79
  -1   7 -12    6.57    3.76
   7  -1  12   -1.19    5.76
   7   1  12    2.02    4.78
  -1   7  12    3.69    4.88
  -7  -1  12    7.20    4.95
  -7   1  12    1.68    4.23
   1   7  12    4.96    4.37
  -1   7  12    2.28    4.41
  -1   7 -14  203.22   13.03
   7  -1 -14  167.86   13.26
  -2   7   1  348.22   20.16
   2   7   1  359.85   20.51
   7   2   1  302.87   20.06
   7   2  -1  318.42   19.15
  -2   7  -1  374.05   27.70
   2   7  -1  395.16   28.43
  -2   7   3   87.06    9.40
   2   7   3   86.54    9.56
   7   2   3   63.89    8.47
  -2   7  -3   87.29    9.44
   2   7  -3   77.99    9.35
   7   2  -3   87.25    8.02
   2   7  -3  103.57   17.68
  -2   7  -3  109.25   18.03
   7   2  -3   74.75    7.87
  -7   2  -3   79.12    8.31
   7   2   3   72.21   10.55
  -2   7   3   77.04    6.90
   7  -2  -5  765.71   30.82
  -2   7  -5  756.57   35.39
  -2   7   5  799.04   35.64
   7   2  -5  817.24   32.69
  -2   7  -5  836.00   33.34
   7   2   5  822.42   42.06
   2   7   5  795.38   31.52
   2   7   5  713.42   32.27
  -2   7  -5  877.05   48.03
   7   2   5  760.59   31.93
   2   7  -5  845.54   47.98
  -7   2   5  775.85   31.03
   7   2   5  798.13   33.27
  -7   2  -5  799.92   51.83
   7   2  -7  108.48   10.11
   7  -2  -7   87.38    8.46
   2   7   7  104.06    7.40
  -2   7  -7   98.96   10.85
  -2   7  -7  106.52    9.93
   2   7  -7  114.06    9.81
  -7  -2   7  100.96   15.83
  -7   2   7   83.27   13.78
   7  -2  -7   97.01   11.63
   7   2  -7   86.77    9.47
   2   7  -7   93.65    8.69
   7  -2   7   90.02   10.58
  -2   7   7  101.78   10.75
   2   7   7  120.59   10.41
   2   7   7   87.93    9.89
   7   2   7  126.38   11.23
  -2   7  -7  111.00   17.49
   7   2   7   91.64   14.09
   2   7  -7   85.83   15.75
  -7  -2  -7  134.70   24.44
  -7   2  -7  117.77   21.64
  -7   2   7   95.98    8.95
  -7   2  -7  115.21   21.31
  -2   7  -9  501.41   27.44
  -7   2  -9  524.66   29.50
   7   2  -9  495.04   25.51
   2   7  -9  490.18   24.20
   7   2  -9  427.63   24.68
  -7  -2   9  389.41   36.13
  -2   7  -9  484.70   24.80
   2  -7  -9  498.92   23.85
   7   2  -9  492.71   25.56
   2   7  -9  479.71   24.33
   7  -2  -9  527.69   29.79
   7  -2   9  433.01   34.43
   2   7   9  442.30   24.76
  -7   2   9  507.15   25.53
  -2   7   9  506.03   27.22
   2   7   9  435.11   25.06
   7  -2   9  479.63   28.09
   7   2   9  414.37   32.95
   2   7  -9  497.36   41.14
  -2   7  -9  418.34   38.35
  -7   2  -9  481.17   47.49
  -2  -7  -9  455.94   43.76
  -7   2   9  453.57   23.31
  -7  -2  -9  422.36   47.46
  -7  -2  -9  491.15   51.54
   7   2 -11  123.17   11.77
   7   2 -11  110.02   11.85
   7  -2 -11  127.36   15.59
   2   7 -11  109.11   10.97
  -2   7 -11  138.36   11.46
   2  -7 -11  121.12   10.56
   7   2  11  113.05   12.40
  -7   2  11  116.52   11.75
  -2   7  11  105.30   12.38
   2   7  11  121.59   12.22
   7  -2  11  128.34   14.64
  -7   2  11  123.93   10.64
  -2   7  11  124.99   11.78
  -2   7 -13  172.35   14.69
   2   7 -13  150.89   14.10
   7   2 -13  172.34   11.19
   2   7 -13  158.71   11.68
   2   7 -13  167.77   10.72
   7   2 -13  163.17   12.13
   7  -2 -13  140.11   14.62
   7   2 -13  181.27   12.54
   7  -2  13  134.02   14.13
  -7  -2  13  147.33   11.04
  -2   7  13  170.58   12.53
  -7   2  13  172.27   12.52
   7   2  13  147.93   12.12
  -2   7  13  187.46   12.01
   3   7   0   35.14    6.45
   7   3   0   37.58    7.17
  -3   7   2  794.35   36.95
   3   7  -2  886.72   38.56
  -3   7  -2  819.63   37.26
   3   7   2  857.61   37.98
  -3   7  -2  870.34   42.03
  -7   3  -2  863.12   36.69
  -3   7   2  810.36   33.85
  -3   7  -2  777.20   49.23
   7   3  -2  835.48   36.41
   7   3  -2  838.21   35.48
   3   7  -2  753.22   48.77
   7   3   2  809.44   33.59
   7   3  -4   44.94    6.53
  -3   7   4   44.10    7.05
  -3   7  -4   33.01    6.44
  -7   3   4   27.78    6.59
   7   3   4   48.16    9.15
  -3   7  -4   36.44   12.13
   3   7  -4   50.36   12.92
  -7   3   4   39.13    5.66
   7   3  -4   33.16    6.63
  -3   7   4   44.03    6.85
  -7   3  -4   50.18    8.10
   3   7   4   34.24    4.68
   7   3   4   41.98    5.23
  -3   7  -4   33.24    3.79
   7   3   4   36.72    5.63
  -7   3   4   33.53    5.33
  -3   7   4   35.24    5.36
  -3   7  -6  741.87   34.00
   7   3  -6  690.97   30.93
   3   7   6  683.42   26.80
  -3   7  -6  717.73   30.76
   7   3  -6  681.76   29.97
   3   7  -6  653.65   29.38
   3  -7   6  678.75   30.23
  -3   7  -6  743.77   45.61
   3   7   6  727.08   30.34
  -7   3   6  675.65   30.04
   3   7   6  695.93   30.97
   7   3   6  761.50   31.27
   7   3   6  741.98   41.45
  -7   3  -6  726.29   36.98
   3   7  -6  781.56   47.05
   7   3  -6  745.30   37.40
  -7   3  -6  664.53   47.27
  -7   3  -6  796.18   54.20
  -7   3   6  718.12   29.84
   7   3   6  772.12   32.44
   7   3  -8   39.11    7.68
  -7   3  -8   41.68    9.55
  -3   7  -8   45.02    8.39
   3   7  -8   38.26    6.20
  -7   3   8   58.85   12.53
  -7  -3   8   39.50   12.54
   7  -3  -8   38.73    9.45
   3   7  -8   44.85    6.87
  -3   7  -8   45.49    7.32
   7   3  -8   52.54    8.09
   3  -7  -8   49.09    6.73
   7  -3   8   55.26   10.09
   3   7   8   47.38    7.58
   7   3   8   56.48   11.45
  -7   3  -8   39.56    9.93
   3  -7   8   51.23    7.51
   3   7  -8   46.67   13.07
  -3   7  -8   58.91   14.24
   7   3   8   33.62    6.94
   7   3  -8   52.37   11.02
  -7   3   8   43.04    7.69
   3   7   8   46.88    7.86
  -7   3  -8   58.51   16.63
  -3   7   8   43.45    7.28
  -7  -3  -8   76.82   20.53
  -7   3   8   50.81    7.49
  -7   3 -10  445.64   27.65
   7   3 -10  327.64   20.67
   3  -7 -10  334.75   19.09
  -3   7 -10  353.53   20.12
   7  -3 -10  372.71   25.18
   7   3 -10  341.93   20.49
   3   7 -10  318.58   19.23
   7   3 -10  349.13   21.15
   3   7 -10  325.71   19.38
  -7  -3  10  334.50   34.20
   7  -3  10  322.36   24.16
  -7   3  10  342.31   21.09
  -3   7  10  335.56   22.09
   3   7  10  377.29   21.71
   3   7  10  331.34   20.65
  -3   7 -10  342.01   35.56
  -7   3 -10  369.66   29.95
   3   7 -10  401.66   38.20
  -7   3 -10  318.80   38.19
  -7  -3 -10  350.90   47.34
  -3   7  10  357.33   20.73
  -7   3  10  347.46   19.87
  -3   7 -12   63.81   10.03
   3   7 -12   47.42    7.73
   3   7 -12   57.67    9.97
   7   3 -12   48.09    7.60
   3   7 -12   54.82    7.31
   7  -3 -12   63.74   10.84
   7   3 -12   49.03    7.32
   3  -7 -12   53.45    6.59
   7  -3  12   67.54   11.57
  -3   7  12   54.86    8.49
  -7   3  12   44.89    7.86
  -3   7  12   55.55    8.07
   7  -3 -14   -0.45    3.40
   3   7 -14   -0.46    3.07
  -3   7 -14    2.54    2.92
  -7   4   1  926.61   37.63
  -7   4  -1  881.84   33.49
  -4   7   1  932.74   45.08
  -4   7  -1  919.14   45.49
  -4   7   1  888.48   35.71
   7   4   1  955.82   42.52
   7   4  -1  913.56   40.19
  -7   4  -1  905.54   45.54
  -4   7  -1  910.25   32.18
  -7   4  -1  914.31   37.10
  -4   7   1  886.23   32.12
  -7   4  -1  923.78   37.56
   7   4   3 1309.23   52.40
  -4   7  -3 1497.23   58.45
   4   7  -3 1537.89   51.83
   7   4  -3 1424.85   52.26
  -7   4   3 1478.43   58.37
  -4   7  -3 1467.01   63.71
  -4   7   3 1421.47   61.86
  -7   4   3 1416.59   51.69
  -4   7   3 1438.81   53.91
   4   7  -3 1368.24   74.77
   7   4  -3 1331.33   62.35
  -7   4  -3 1457.03   64.98
  -4   7  -3 1205.88   71.99
   7   4   3 1530.45   62.76
  -7   4  -3 1420.75   62.51
  -7   4  -3 1395.30   68.58
   4   7   3 1495.94   50.32
  -4   7  -3 1477.84   48.64
  -7   4  -3 1295.62   59.04
  -4   7   3 1452.21   48.60
  -7   4   3 1436.94   51.59
  -4   7   3 1448.81   51.43
   7   4  -5   25.08    5.68
  -4   7  -5   18.71    5.11
  -4   7   5   14.02    4.90
   4   7  -5    9.72    4.67
  -7   4   5   18.74    5.92
  -7   4   5   12.91    4.81
  -7   4  -5    1.66    4.27
   7   4   5    9.82    3.72
   7   4   5   11.53    5.75
  -4   7   5    7.89    5.18
   4   7   5   19.37    4.26
  -7   4   5   13.36    4.53
   7   4  -5   16.11    5.96
   4   7   5   11.53    4.20
  -4   7  -5    4.50    7.21
   4   7  -5   15.94    8.81
  -7   4  -5   12.16    5.70
  -7   4   5    7.38    2.27
  -4   7   5   13.91    2.77
  -7   4   5   13.35    4.99
   7   4   5   13.40    4.40
  -7   4  -5    4.48    6.50
  -4   7  -7 2125.38   76.89
   7   4  -7 2003.49   74.51
  -4   7  -7 2040.77   73.70
   4   7  -7 2052.29   73.38
   4  -7  -7 2067.47   72.65
   7   4  -7 2038.19   73.05
   7  -4  -7 2171.64   79.09
   4   7  -7 2008.15   71.01
  -7   4   7 2020.55   88.40
   7   4   7 2074.85   88.68
   7  -4   7 2054.08   79.81
   4   7   7 2147.27   73.93
   4  -7   7 2156.09   76.11
  -7   4   7 2127.39   74.85
  -4   7   7 2164.76   77.23
   4   7   7 1954.82   73.28
   7   4  -7 2113.09   86.49
   7   4   7 2108.54   74.28
  -7   4  -7 1957.20   84.95
   4   7  -7 2303.88   98.52
  -4   7  -7 2193.68   97.37
  -7   4   7 1972.40   72.63
  -7   4  -7 1972.16  100.19
  -4   7   7 2026.68   73.40
  -7   4  -7 2029.56  105.14
   7   4  -9    3.78    5.78
  -7   4  -9    4.18    6.86
  -4   7  -9    4.53    5.36
   4   7  -9    4.11    4.49
   7   4  -9   -0.83    4.37
   7   4  -9    1.76    4.34
   7  -4  -9    4.92    7.23
   4  -7  -9   -0.76    4.29
  -4   7  -9    1.68    4.29
   4   7  -9    4.99    3.37
  -7  -4   9    6.06    7.17
   7   4   9    1.93    5.10
   7  -4   9    1.50    6.47
   4   7   9   -0.90    4.76
   4  -7   9    5.59    4.93
  -7   4   9    5.77    4.92
   4   7  -9   -3.06   10.65
   4   7   9    5.07    4.76
  -7   4  -9    8.50    6.49
  -4   7  -9   -3.00    8.70
  -4   7   9    0.87    4.96
  -7   4   9    1.65    4.58
  -7   4  -9    3.80    9.70
   4   7 -11  850.71   38.14
  -4   7 -11  794.20   37.11
   4   7 -11  753.01   34.57
   7   4 -11  743.26   34.51
   7  -4 -11  702.63   36.56
   4  -7 -11  707.83   31.89
   4   7 -11  733.24   33.57
  -4   7 -11  714.92   32.02
   7   4 -11  732.23   32.90
   7   4 -11  850.77   35.91
   4   7 -11  731.66   32.19
   7  -4  11  772.79   41.73
   4   7  11  814.73   35.40
   7   4  11  775.75   35.15
  -7   4  11  800.66   36.03
  -7   4  11  776.91   33.47
  -4   7  11  817.61   34.72
   4   7 -13   19.18    4.78
   4   7 -13   17.07    6.97
  -4   7 -13   13.08    6.39
   4   7 -13   15.84    3.98
   7   4 -13   22.22    4.54
   7   4 -13   25.06    4.97
   7  -4 -13   21.92    5.95
   7  -4  13   12.74    5.37
  -7  -4  13   24.44    4.67
  -7   4  13   22.41    5.24
  -4   7  13   26.19    5.66
   4   7  13   23.04    4.34
  -4   7  13   19.39    4.43
   7   5   0  125.65   13.02
  -5   7   0  126.57   10.04
  -5   7   0  147.33    8.44
  -7   5   0  135.55   14.41
   5   7   2 2572.05   87.64
   5   7  -2 2722.81   90.04
  -7   5   2 2681.54   94.88
  -5   7   2 2847.92  103.87
  -5   7  -2 2791.17  104.55
  -5   7   2 2681.56   91.69
  -5   7  -2 2821.13  108.32
   5   7  -2 2912.13  108.97
   7   5  -2 2867.80   97.93
  -7   5  -2 2761.26   97.59
  -7   5   2 2544.69   90.31
  -5   7  -2 2644.82   86.57
  -5   7  -2 2644.29   91.81
   5   7   2 2704.59   87.78
  -7   5  -2 2662.55  106.74
  -7   5  -2 2708.24   94.79
  -5   7   2 2642.08   86.59
  -7   5  -2 2725.11   96.67
   5   7  -4    3.75    3.77
  -5   7  -4    1.18    3.23
  -7   5   4    1.28    3.70
  -7   5  -4   -1.96    5.98
   7   5   4    6.38    5.34
  -7   5   4    1.57    3.72
  -7   5  -4    3.52    4.16
  -5   7  -4   -1.72    4.71
  -5   7   4   -1.53    4.43
   7   5  -4   -1.89    6.31
   7   5   4    2.90    2.42
   5   7   4    3.71    2.83
  -7   5   4    1.35    3.68
  -5   7   4    4.70    4.48
   5   7  -4   -8.02    8.16
  -5   7  -4   13.47    9.74
  -7   5   4    1.45    1.88
  -5   7   4   -0.36    1.99
  -7   5   4    0.62    4.09
   5   7   4    1.62    3.09
  -7   5  -4    2.95    2.08
  -7   5  -4    9.85    7.89
  -5   7  -4    5.09    2.28
   7   5   4    3.59    3.27
  -7   5  -4    1.82    4.66
   5   7  -6  729.48   33.69
   5   7   6  720.13   27.52
  -5   7  -6  676.20   35.04
  -5   7  -6  785.83   34.17
   5   7  -6  701.72   31.44
   7   5  -6  721.79   32.32
  -5   7  -6  670.52   31.21
   5  -7  -6  671.71   30.14
   7   5  -6  686.59   29.80
   5   7  -6  746.01   31.43
  -7   5   6  748.79   41.54
   5   7  -6  729.55   48.61
   5   7   6  736.45   30.79
   7   5   6  744.99   31.05
  -7   5  -6  733.33   41.78
  -7   5   6  765.96   32.90
  -5   7   6  773.58   34.08
   7   5   6  663.39   41.10
   7   5  -6  748.63   43.00
  -7   5  -6  713.12   42.71
  -5   7  -6  777.22   49.60
   7   5   6  700.80   31.96
  -5   7   6  732.77   31.56
  -7   5  -6  689.97   47.92
  -7   5   6  725.36   31.20
  -5   7  -8  196.57   15.96
   7   5  -8  170.34   14.48
  -7   5  -8  189.90   16.78
   7   5  -8  184.92   13.35
  -7  -5   8  181.98   25.73
   7   5  -8  155.52   12.98
   5  -7  -8  141.44   12.31
  -5   7  -8  158.94   13.05
   7  -5  -8  207.03   16.61
   5   7  -8  157.40   12.13
   5   7  -8  175.04   13.42
   5   7   8  169.94   13.40
   7  -5   8  185.16   18.56
   5  -7   8  177.04   15.66
  -7   5   8  192.54   15.27
  -5   7   8  185.32   15.96
   7   5   8  187.43   20.74
   7   5  -8  175.33   21.92
  -7   5  -8  203.47   23.04
   5   7  -8  218.55   26.25
  -5   7  -8  239.42   27.90
   7   5   8  190.86   14.28
  -5   7   8  168.09   13.76
  -7   5  -8  180.51   26.45
  -7   5   8  163.45   13.31
  -5   7 -10  191.06   16.63
   7   5 -10  209.88   16.08
  -7   5 -10  235.65   20.21
  -5   7 -10  229.57   18.10
   5   7 -10  234.68   18.15
   5   7 -10  202.65   15.66
   7   5 -10  194.74   14.31
   5  -7 -10  203.32   14.43
   7  -5 -10  206.33   16.86
   5   7 -10  203.97   13.91
   5   7 -10  211.77   14.72
   7   5 -10  215.78   15.67
   5  -7  10  210.49   16.30
   7   5  10  229.22   16.32
  -7   5  10  212.45   16.63
  -5   7  10  209.23   17.04
   5   7  10  212.22   15.67
   7  -5  10  223.66   21.32
  -5   7  10  205.05   15.51
  -7   5  10  226.15   15.77
   7   5 -12  257.68   17.39
  -7   5 -12  264.38   17.49
   5   7 -12  278.65   19.71
   7   5 -12  317.28   17.50
  -5   7 -12  233.13   18.50
   5   7 -12  304.90   17.46
   5   7 -12  298.25   16.33
   7   5 -12  277.79   15.29
   5  -7 -12  290.04   15.02
   7  -5 -12  292.90   17.62
  -7   5  12  283.49   18.01
   7   5  12  283.26   16.73
   7  -5  12  246.01   18.96
  -5   7  12  315.23   17.09
   6   7   1    9.63    3.23
   7   6   1    6.84    2.88
  -7   6   1    8.73    3.44
  -6   7  -1   -1.73    4.72
   7   6   1    1.32    4.59
  -7   6   1    1.71    6.39
  -7   6  -1    5.22    5.05
  -6   7   1    5.08    4.63
  -7   6   1    5.16    4.00
  -6   7   1   14.62    4.82
  -7   6  -1   10.57    2.79
  -6   7  -1    7.54    2.45
  -7   6   1    6.78    2.37
  -7   6  -1   13.31    4.74
  -7   6  -1    1.63    4.45
  -6   7   1   11.68    3.01
   6   7  -3   86.38    8.90
   7   6  -3   77.68    8.21
  -7   6   3   87.81   10.94
  -6   7  -3   82.14   15.90
  -7   6   3   91.69   13.41
  -7   6  -3   82.64   13.58
  -6   7  -3   68.62   12.29
   6   7   3   67.73   11.66
  -6   7   3   73.68   11.99
   6   7  -3   31.70   11.16
   7   6   3   90.73   12.80
  -7   6   3   61.40    8.14
  -6   7   3   64.05    8.70
   7   6  -3   83.25   13.56
  -7   6  -3   88.03   13.96
  -7   6  -3   64.08   13.18
  -7   6   3   72.99    6.03
   6   7   3   73.12    7.02
   7   6   3   74.48    7.32
  -7   6  -3   89.02   12.23
  -6   7   3   77.01    6.20
  -6   7  -3   65.30    5.71
  -7   6  -3   78.18    6.22
  -6   7   5    3.86    3.52
   6   7   5    4.43    2.55
   7   6   5    4.30    2.54
   6   7  -5    0.75    4.47
   6   7  -5    3.00    5.46
  -6   7  -5    5.20    3.98
  -6   7  -5    7.48    4.46
  -7   6   5    4.39    6.00
  -6   7   5    9.18    6.47
  -7   6  -5    3.87    4.58
  -7   6   5   13.26    5.99
   6   7   5    2.87    2.99
   7   6   5    3.59    5.76
   6   7   5    8.74    5.85
  -7   6   5    4.90    4.40
   7   6   5    5.78    3.40
  -6   7   5    8.72    5.19
   7   6  -5    2.45    6.26
  -7   6  -5    4.99    7.24
   6   7  -5   -2.85   11.37
  -6   7  -5    5.75   10.40
  -6   7   5   21.11    5.57
  -7   6  -5   -4.39    5.20
   6   7   5    0.67    3.09
  -7   6   5    4.71    2.19
  -6   7   5    4.76    2.24
  -7   6  -5    4.82    2.16
  -7   6  -5    5.79    8.84
  -7   6   5    2.11    4.60
  -6   7  -5    7.24    2.43
   7   6  -7  194.12   15.10
   6   7  -7  192.17   16.29
  -6   7  -7  177.94   15.27
  -6   7  -7  176.50   15.55
   7   6  -7  211.68   15.95
  -6   7  -7  191.03   14.11
   6   7  -7  191.67   12.49
   6  -7  -7  177.44   13.61
   6   7  -7  185.07   13.92
   7  -6  -7  179.86   14.75
   7   6  -7  195.69   13.03
   6   7   7  210.51   14.06
  -7   6  -7  169.59   23.21
   7  -6   7  214.49   20.75
   6  -7   7  190.63   17.90
  -7   6   7  222.76   16.43
  -6   7   7  195.11   15.74
  -6   7  -7  206.44   26.72
   7   6  -7  194.90   24.31
   6   7  -7  228.02   28.32
   7   6   7  189.83   13.68
   7   6   7  171.48   20.22
  -7   6   7  201.05   14.57
  -6   7   7  187.74   14.49
   6   7  -9  145.13   14.80
   7   6  -9  128.75   13.20
  -7   6  -9  152.46   14.18
  -6   7  -9  144.51   14.45
  -6   7  -9  135.77   14.35
  -7   6  -9  130.09   14.75
   6   7  -9  128.68   12.87
   7   6  -9  139.91   13.79
   6  -7  -9  153.96   12.65
   6   7  -9  138.41   11.18
   7  -6  -9  147.35   13.62
   6   7  -9  145.21   12.48
   7   6  -9  109.42   11.19
   7   6  -9  146.65   11.87
   6   7   9  147.96   12.77
  -7   6   9  177.25   15.07
  -6   7   9  137.30   14.06
   7   6   9  126.92   12.13
   7  -6   9  158.82   18.17
   6   7  -9  144.45   23.35
  -7   6  -9  121.53   20.50
  -6   7  -9  190.79   26.62
   6  -7   9  129.10   14.54
  -7   6   9  162.10   13.17
  -6   7   9  165.81   13.66
  -7   6 -11  470.34   26.08
   7   6 -11  463.08   24.59
   6   7 -11  476.65   27.32
   7   6 -11  455.33   25.90
  -6   7 -11  417.84   26.31
   6   7 -11  473.45   24.79
   6  -7 -11  495.87   23.11
   6   7 -11  498.06   22.39
   6   7 -11  484.59   23.83
   7  -6 -11  494.80   24.58
   7   6 -11  463.18   23.91
   7   6 -11  515.83   22.78
   6   7  11  521.22   24.75
   7   6  11  481.33   24.22
  -7   6  11  456.09   25.60
  -6   7  11  436.57   25.40
   7  -6  11  469.37   27.81
   6  -7  11  485.35   25.40
  -7   6  11  508.93   24.21
  -6   7  11  464.64   23.99
  -6   7 -13   59.29    5.45
   6   7 -13   57.71    6.04
   6   7 -13   65.19    6.11
   7   6 -13   71.59    6.33
   7  -6 -13   65.21    5.54
  -7   6  13   76.80    7.33
  -6   7  13   68.45    7.06
  -7   7   0 1168.96   44.72
  -7   7   0 1275.79   43.05
   7   7   0 1172.11   43.48
   7   7   2  443.59   21.08
  -7   7   2  532.79   34.31
  -7   7  -2  457.36   33.38
  -7   7   2  509.09   24.20
  -7   7  -2  465.13   19.88
  -7   7   2  472.89   19.91
  -7   7  -2  461.60   24.71
   7   7   2  489.40   21.43
   7   7  -4  923.51   38.14
   7   7   4  938.46   33.90
  -7   7   4  786.65   41.26
  -7   7   4  990.88   50.66
  -7   7  -4  923.53   51.78
  -7   7   4  943.91   39.66
   7   7   4  899.62   48.50
   7   7  -4  826.77   53.24
   7   7   4  888.31   34.47
  -7   7  -4  802.58   53.21
  -7   7   4  917.01   37.59
  -7   7  -4  955.71   34.16
  -7   7   4  913.39   33.86
   7   7   4  952.28   36.85
   7   7   6    2.60    2.48
   7   7  -6    5.64    6.36
  -7   7  -6    1.34    3.66
   7  -7  -6   -0.81    4.29
  -7   7  -6    6.60    9.57
   7   7  -6   -3.25    7.02
   7   7   6    2.69    3.32
   7   7   6    1.98    5.42
  -7   7   6    0.98    5.11
  -7   7   6    9.62    5.31
  -7   7  -8   12.95    7.55
   7   7  -8    9.58    6.75
  -7   7  -8   11.73    7.44
   7  -7  -8   10.50    5.08
   7   7  -8    8.44    4.76
   7   7  -8    8.13    3.88
  -7   7   8   11.13    6.72
   7  -7   8    8.04    8.51
   7   7   8    7.31    4.45
  -7   7  -8    7.03    9.62
  -7   7   8   19.66    6.80
  -7   7 -10  131.17   14.31
   7   7 -10  150.10   13.00
  -7   7 -10  138.81   14.53
   7   7 -10  122.73   14.45
   7   7 -10  146.73   10.83
   7   7 -10  153.61   12.21
   7  -7 -10  118.93   11.24
   7   7  10  150.40   12.41
  -7   7  10  150.60   14.01
   7  -7  10  144.23   15.41
  -7   7  10  159.87   12.93
   7   7 -12   19.96    5.46
   7   7 -12   18.86    4.82
  -7   7  12   21.86    5.53
   7  -7 -12   25.11    4.25
   7   7 -12   17.91    4.34
   0   8   0 9455.24  301.92
   0   8   2  434.47   23.74
   0   8  -2  392.77   23.01
   0   8   2  443.79   21.13
   8   0  -2  447.38   21.93
   0   8  -2  419.37   34.30
   0   8  -2  380.48   16.39
   0   8   2  400.80   16.61
   0   8  -4 3801.16  120.48
   0   8  -4 3869.50  128.11
   8   0  -4 3664.59  120.44
   0   8   4 3682.37  127.03
   0   8  -4 3708.28  148.85
   0   8   4 3547.67  122.97
   0   8  -4 3624.30  116.72
   0   8  -6  656.91   29.50
   8   0  -6  616.51   28.31
   0   8  -6  648.89   32.40
  -8   0   6  672.01   39.23
   0   8  -6  656.25   27.78
   0   8   6  635.91   25.07
   8   0   6  616.17   29.32
   0   8   6  658.70   30.96
  -8   0  -6  576.87   47.67
   8   0   6  602.19   29.50
   8   0  -8 1710.56   63.16
  -8   0  -8 1690.57   65.50
   0   8   8 1654.05   57.52
   0   8  -8 1646.56   63.12
   0   8  -8 1731.17   62.74
  -8   0   8 1799.83   81.97
   0   8   8 1752.93   66.29
   8   0   8 1658.17   79.08
   0   8  -8 1738.92   89.72
  -8   0  -8 1618.06   97.70
  -8   0  -8 1575.05   93.06
   0   8 -10  962.58   44.54
   8   0 -10  984.39   40.41
   0   8  10  886.84   42.18
   8   0  10  937.03   43.76
   0   8 -10  967.47   65.57
   0   8 -10  988.83   41.33
   0   8 -12  403.50   24.98
   0   8 -12  381.98   20.15
  -8   0  12  396.29   20.89
   0   8  12  398.28   21.42
   8   0  12  387.14   23.76
   0   8 -12  368.92   19.56
   0   8 -14  744.82   28.44
  -1   8   1 1814.57   65.29
   1   8   1 1687.14   64.99
   8   1  -1 1709.41   63.67
   1   8  -1 1740.72   74.97
  -1   8   1 1674.89   59.37
  -1   8  -1 1668.72   55.38
  -1   8  -1 1610.60   57.65
  -1   8   1 1656.99   55.36
   1   8  -1 1637.98   55.45
   1   8   1 1689.49   55.60
  -1   8   1 1689.75   57.91
  -1   8  -3  393.83   22.70
   8   1   3  271.64   19.08
  -1   8   3  374.92   22.09
  -1   8  -3  400.52   17.90
   1   8  -3  393.39   17.68
   1   8   3  339.40   21.90
   1   8  -3  379.46   22.91
   8   1  -3  350.52   18.13
   1   8   3  416.82   20.31
  -1   8   3  378.67   20.34
   1   8  -3  284.26   33.09
   8  -1  -3  383.66   18.40
  -1   8   3  375.14   15.67
  -1   8  -3  377.70   15.68
  -1   8   3  374.84   17.19
  -1   8  -5 1669.68   57.71
  -1   8  -5 1657.12   63.15
   1   8  -5 1676.13   57.44
   1   8  -5 1520.19   62.18
   1   8   5 1523.62   62.00
   8   1  -5 1571.36   57.25
   8  -1  -5 1551.03   56.06
  -1   8   5 1536.53   61.72
   8   1   5 1507.57   56.59
  -1   8   5 1471.53   58.68
   1   8   5 1545.40   58.55
   1   8   5 1615.38   56.54
   1   8  -5 1798.35   82.45
   8   1   5 1545.65   59.94
  -8   1   5 1521.80   54.90
   8  -1   5 1442.06   56.98
   1   8   7   88.33    6.94
   8   1  -7  100.26   10.36
   8  -1  -7   77.70    8.74
  -1   8  -7   82.08    9.16
  -1   8   7   86.06    7.11
  -8   1   7  109.06   15.35
  -1   8  -7   91.63    8.97
   1   8  -7   89.30    9.03
  -8  -1   7   68.56   13.21
   8   1  -7   84.80    9.78
   1   8   7   83.25    7.05
   1   8  -7   88.46    8.49
   8   1   7  100.76   15.75
   8   1   7   98.09   10.12
  -1   8   7   89.02   10.86
   1   8   7  103.12   11.16
   1   8  -7   93.58   18.29
   1   8   7  101.91    9.92
   8   1   7   95.88   10.47
  -8  -1  -7  101.91   21.59
  -8   1   7   81.59    8.44
  -8   1  -7   93.01   20.51
   8  -1  -9 1490.03   57.59
  -8   1  -9 1494.85   61.99
   8   1  -9 1487.42   59.05
  -8   1   9 1486.18   76.26
  -1   8  -9 1502.85   58.91
   1   8  -9 1543.09   59.14
  -8  -1   9 1601.33   80.43
   1   8  -9 1552.56   58.46
   8   1  -9 1553.74   60.94
   8  -1  -9 1435.50   62.87
   8   1  -9 1712.04   62.08
  -8   1   9 1532.18   58.59
  -1   8   9 1605.94   62.34
   1   8   9 1472.29   60.62
   8  -1   9 1563.12   63.27
   8   1   9 1434.68   72.76
   8  -1   9 1543.84   75.72
   1   8  -9 1684.29   88.72
  -8   1  -9 1542.15   92.43
  -8  -1  -9 1759.28  103.52
  -8   1  -9 1456.23   92.60
   8   1 -11   19.79    5.59
  -1   8 -11   22.85    7.82
   1   8 -11   18.84    5.90
   8   1 -11   20.02    7.26
   8  -1 -11   14.12    8.24
  -1   8 -11   17.58    5.75
   8   1  11   13.78    6.17
  -8  -1  11   22.92    6.10
  -8   1  11   13.86    5.39
   8  -1  11   22.54    7.28
   1   8  11   23.19    6.79
  -1   8  11   21.48    6.58
  -1   8  11   13.64    5.78
  -1   8 -13  736.20   29.29
   1   8 -13  691.41   29.36
  -1   8 -13  557.57   32.02
   1   8 -13  720.18   28.31
   8  -1 -13  606.05   33.14
   8  -1  13  745.01   34.81
  -8  -1  13  763.26   29.90
   8   1  13  785.62   33.23
  -8   1  13  778.46   30.71
  -1   8  13  768.31   30.18
  -1   8  13  803.24   30.23
   2   8   0  740.28   34.53
  -2   8   0  779.61   35.07
   8   2   0  708.40   34.24
  -2   8   0  669.38   29.03
  -2   8   0  693.58   27.08
   2   8   0  679.89   27.26
  -2   8   0  692.01   25.79
  -2   8   2  339.24   21.45
   2   8  -2  394.82   23.10
   2   8   2  381.73   22.86
  -2   8  -2  387.66   22.73
   8   2   2  378.73   24.54
   8   2  -2  362.02   20.54
   2   8  -2  379.14   32.28
  -2   8  -2  322.10   30.16
  -2   8  -2  380.50   15.60
   8   2   2  350.36   19.97
  -2   8   2  350.17   15.31
  -2   8  -4  469.42   26.13
   2   8   4  470.67   26.33
  -2   8  -4  481.24   21.73
   8   2  -4  498.97   22.68
   2   8  -4  455.10   26.25
  -2   8   4  431.29   25.39
   8   2   4  453.47   20.93
  -8   2   4  418.52   19.85
   8   2   4  457.92   29.38
   2   8   4  474.15   20.67
   2   8   4  470.35   22.97
  -8   2  -4  461.50   23.95
   2   8  -4  495.78   40.36
  -2   8  -4  495.08   40.00
  -2   8  -4  454.73   18.45
  -2   8   4  413.83   20.12
  -2   8   4  434.62   18.27
  -2   8  -6  260.36   18.71
   8   2  -6  244.61   16.25
   2   8  -6  281.48   18.81
   2   8   6  257.43   12.86
  -2   8  -6  296.16   17.70
   8  -2  -6  267.33   15.33
  -2   8  -6  269.36   18.41
  -2   8  -6  265.79   16.13
  -2   8   6  246.86   12.98
   2   8   6  260.93   13.20
   8   2  -6  261.75   16.16
   2   8  -6  275.50   15.48
   8  -2   6  280.15   18.25
   8   2   6  241.15   23.05
  -8   2   6  296.07   16.02
   8   2   6  268.10   16.25
  -2   8   6  271.41   17.97
   2   8   6  245.01   16.80
   2   8   6  266.28   15.72
  -8   2  -6  218.57   18.26
   2   8  -6  337.90   32.58
  -2   8  -6  235.40   27.80
  -8   2  -6  300.72   32.95
   8   2   6  276.36   18.36
  -8   2   6  263.96   15.39
   8   2  -8   62.32    9.03
  -2   8  -8   66.06    9.57
  -8   2   8   45.05   11.02
  -2   8  -8   74.79    9.03
   8   2  -8   51.70    8.36
   2   8  -8   49.49    7.12
   8  -2  -8   62.97   10.97
   2   8  -8   63.12    8.19
  -8  -2   8   56.03   13.26
   8  -2   8   74.11   11.10
   2   8   8   67.67    8.93
   8   2   8   45.65    7.67
  -2   8   8   72.26   10.41
   8   2   8   33.01    9.90
  -8   2   8   53.61    8.00
   2   8   8   59.50    9.31
   2   8  -8   55.32   14.52
  -8   2  -8   43.81    9.11
  -2   8  -8   70.80   16.84
  -8   2  -8   56.69   16.42
  -8   2  -8   76.89   19.23
  -8   2   8   73.17    8.95
  -8  -2  -8   62.60   19.26
  -8   2 -10   10.03    5.81
   2   8 -10    1.23    6.84
  -2   8 -10    1.20    6.86
   8   2 -10    4.60    4.79
   8   2 -10    9.32    5.48
   2   8 -10   11.67    5.82
   8  -2 -10   13.16    8.60
  -2   8 -10   10.37    5.08
   8   2 -10    5.63    5.44
   2   8 -10    3.67   11.76
  -8   2  10    4.56    5.14
  -2   8  10    5.55    5.67
   8  -2  10    1.38    6.69
   2   8  10   14.46    5.59
  -2   8 -10   -7.20   13.47
  -2   8  10    1.70    4.71
  -8  -2 -10    9.89   10.68
  -8   2  10    8.03    4.79
  -8   2 -10   -3.96    8.57
   2   8 -12    2.35    7.10
  -2   8 -12    5.76    6.59
   8   2 -12    6.87    4.90
   8  -2 -12   14.04    8.98
   2   8 -12    9.20    4.26
  -2   8 -12    9.45    4.00
   8  -2  12    2.58    6.37
   8   2  12    1.74    4.29
  -8  -2  12    8.84    4.36
  -8   2  12    4.71    4.36
  -2   8  12   15.16    5.52
   2   8  12    5.48    3.63
  -2   8  12   12.85    4.98
   2   8  12    4.54    3.97
   8  -2 -14   30.65    4.82
   2   8 -14   35.88    4.23
  -2   8 -14   36.10    4.16
   3   8   1  624.41   31.90
  -3   8   1  618.75   31.85
  -3   8   1  625.10   27.09
   8   3   1  670.11   33.89
   8   3  -1  655.38   31.64
  -8   3  -1  610.87   28.06
  -3   8   1  601.40   23.45
  -3   8   1  630.10   25.03
  -3   8  -1  567.27   24.29
   3   8   1  631.90   25.28
  -3   8  -1  605.82   23.44
   8   3   1  667.66   26.96
   3   8  -1  590.79   24.61
   3   8  -3 1963.33   72.87
   8   3  -3 1927.18   65.48
   3   8  -3 1900.47   63.54
   8   3   3 1601.44   66.81
  -3   8  -3 1836.25   71.67
   3   8   3 1950.84   72.22
  -3   8   3 1989.21   72.16
  -8   3   3 1946.65   72.34
   8   3   3 1849.29   62.32
  -3   8   3 1905.99   67.27
  -3   8  -3 1329.81   84.13
  -3   8   3 1868.29   63.77
  -3   8  -3 1873.19   61.07
  -8   3  -3 2094.34   73.53
  -3   8   3 1860.01   61.07
   3   8  -5   88.61   11.06
   3   8   5   79.32    6.32
  -3   8  -5   77.53    8.63
  -3   8  -5   87.53   10.80
  -3   8   5   72.68    9.63
  -3   8  -5   62.27    9.72
   8   3  -5   70.41    8.46
  -8   3   5   85.42   12.13
  -3   8  -5   75.21    8.23
   3   8   5   85.33    6.57
   8   3   5   70.40   12.15
  -8   3   5   80.84    8.07
   8   3   5   88.75    8.33
   3   8   5   78.18    7.72
   3   8   5   86.89    9.25
  -3   8  -5   68.40   16.01
  -8   3  -5   85.87   11.14
   3   8  -5   81.61   17.30
   8   3   5   86.05    9.32
  -8   3   5   83.51    8.46
  -8   3  -5   78.59   15.11
  -3   8   5   82.06    6.24
  -3   8   5   87.26    8.40
   3   8  -7 2002.17   73.70
   3   8   7 1866.00   64.19
  -3   8  -7 1989.20   73.61
   3   8   7 1905.66   63.88
   8   3  -7 1853.24   69.84
   8  -3  -7 2014.35   77.79
  -3   8  -7 1794.81   68.53
  -8   3   7 2031.11   85.21
   8   3  -7 1885.54   68.69
   3   8  -7 1822.31   68.03
   8   3   7 1882.38   84.72
   8  -3   7 1883.81   74.20
  -8   3   7 1925.60   69.36
   3   8   7 1816.91   69.49
   3   8   7 1971.04   69.19
  -8  -3  -7 2078.61  112.34
   8   3   7 1895.38   69.50
  -8   3  -7 1941.65   78.79
   3   8  -7 1989.97   96.59
  -3   8  -7 1991.45   96.47
  -8   3  -7 1938.12  102.12
  -8   3   7 1805.33   67.70
  -8   3  -7 1975.54   98.59
   8   3  -9    4.80    5.41
  -8   3  -9   14.09    8.69
  -3   8  -9    2.23    4.82
   3   8  -9    1.74    4.99
  -3   8  -9    5.92    6.77
   3   8  -9    6.07    6.53
   8  -3  -9    1.56    7.81
  -3   8  -9    0.87    4.61
   8   3  -9    6.94    5.30
   3   8  -9    0.83    3.93
   8   3  -9   15.31    5.99
  -8  -3   9    6.51    7.70
   3   8  -9    4.79    3.97
   8  -3   9   11.81    6.46
   3   8   9    0.90    4.26
   8  -3   9    7.31    8.36
   8   3   9    4.26    4.60
  -8   3   9    5.54    4.97
   8   3   9    3.93    5.45
  -3   8   9    3.42    5.73
   3   8   9    3.72    4.40
   3   8  -9   -3.58   10.93
  -3   8  -9   21.12   11.28
  -3   8   9    1.74    4.44
  -8  -3  -9   -5.53   11.95
  -8   3  -9    3.86    9.13
  -8   3   9    4.83    4.53
   8   3 -11  917.33   38.91
  -3   8 -11  891.43   42.95
   3   8 -11 1005.60   44.95
   3   8 -11  955.76   39.16
   8  -3 -11  949.50   46.00
  -3   8 -11  915.90   37.79
   8   3 -11  902.06   38.28
  -8   3  11  883.71   39.50
  -3   8  11  868.85   40.56
   8   3  11  890.08   39.80
   8  -3  11  935.48   46.61
  -3   8  11  917.78   38.85
   3   8 -13   24.25    6.69
  -3   8 -13   26.92    6.67
  -3   8 -13   32.79    4.70
   3   8 -13   27.27    4.41
   8  -3 -13   26.87    6.69
   8   3 -13   32.17    5.50
   8   3 -13   31.29    5.22
   8  -3  13   31.84    7.18
  -8  -3  13   33.41    4.81
  -8   3  13   25.83    5.17
  -3   8  13   33.55    5.51
  -3   8  13   30.19    5.03
   3   8  13   28.90    4.67
  -8   4   0  600.71   26.62
   8   4   0  588.46   31.75
  -4   8   0  564.47   25.53
  -4   8   0  614.83   25.43
  -4   8   0  613.66   23.01
  -4   8   0  551.74   22.94
   4   8   0  563.68   23.12
   4   8  -2 4241.77  137.42
  -4   8   2 4154.24  146.65
  -4   8  -2 4431.08  147.22
   8   4   2 4574.32  140.17
  -8   4   2 4418.27  144.20
  -8   4  -2 4209.16  157.63
  -4   8   2 4414.86  140.74
   4   8  -2 4787.54  161.28
  -4   8  -2 4748.38  161.51
  -4   8  -2 3889.54  138.31
  -8   4  -2 4226.56  146.56
  -4   8   2 4186.13  134.69
  -4   8  -2 4169.04  134.65
  -8   4  -2 4257.08  143.09
  -4   8   2 4147.91  137.57
   4   8   2 4257.65  135.12
   4   8  -4  641.48   26.92
  -4   8  -4  593.92   32.65
   8   4  -4  644.47   28.15
  -4   8   4  609.93   32.51
  -8   4   4  623.60   33.80
  -8   4   4  610.49   26.99
   4   8   4  596.70   24.89
   8   4   4  586.06   25.30
  -4   8   4  577.48   28.76
   4   8   4  593.83   26.12
  -8   4  -4  566.84   36.53
   4   8  -4  506.84   45.67
  -4   8  -4  473.07   44.51
   8   4   4  672.80   38.09
  -8   4  -4  615.41   44.65
   8   4   4  629.97   27.49
  -4   8   4  607.48   23.79
  -4   8  -4  621.68   23.96
  -4   8   4  595.74   26.62
  -8   4  -4  661.39   39.81
   4   8  -6 2462.51   88.56
   4   8   6 2323.56   78.75
  -4   8  -6 2300.63   89.07
   8   4  -6 2394.25   84.96
   4   8  -6 2519.73   83.92
  -4   8  -6 2374.69   87.95
   4   8   6 2461.51   79.38
  -4   8  -6 2423.13   84.04
  -8   4   6 2577.81   98.28
   4   8  -6 2284.58   82.64
   8   4  -6 2387.52   82.38
  -4   8   6 2416.86   79.38
  -8   4  -6 2435.07   97.68
   8   4   6 2379.58   83.03
  -8   4   6 2385.31   83.97
   4   8   6 2422.97   82.66
  -4   8   6 2365.77   86.62
   4   8   6 2339.80   83.16
   8   4   6 2442.94   99.71
  -4   8  -6 2388.56  112.20
  -8   4  -6 2480.52   96.45
   4   8  -6 2653.42  115.28
  -8   4  -6 2250.86  106.02
   8   4   6 2283.47   84.87
  -8   4  -6 2380.60  114.99
  -8   4   6 2351.32   83.09
   8   4  -8  767.25   35.86
   4   8  -8  804.82   39.13
  -8   4  -8  824.50   41.46
  -4   8  -8  796.53   37.76
   4   8  -8  791.03   35.31
  -4   8  -8  910.30   40.37
  -4   8  -8  747.15   34.54
  -8  -4   8  824.91   57.32
   8   4  -8  796.32   34.34
   8  -4  -8  749.29   39.92
   4   8  -8  706.67   31.79
   4   8  -8  765.27   34.49
   8   4   8  715.09   45.64
   8  -4   8  838.98   42.87
  -8   4   8  842.27   36.54
   4  -8   8  760.27   34.91
   4   8   8  782.28   34.69
   4   8   8  776.84   34.78
   8   4   8  757.99   35.03
   4   8  -8  846.08   59.32
  -4   8  -8  809.93   58.45
  -8  -4  -8  859.93   74.17
  -8   4  -8  695.50   54.70
  -8   4   8  785.63   34.69
  -4   8   8  809.98   35.49
  -8   4 -10  916.34   45.67
   8   4 -10  793.89   37.11
  -4   8 -10  843.23   40.85
   4   8 -10  880.98   41.71
  -4   8 -10  814.32   35.95
   4  -8 -10  840.46   34.48
   8   4 -10  825.47   35.58
   8  -4 -10  766.79   41.00
   8   4 -10  876.81   38.10
   4   8 -10  807.27   34.20
   4   8 -10  799.66   35.66
  -8   4  10  829.11   37.80
   8  -4  10  763.86   44.13
   8   4  10  845.69   37.64
   4   8  10  858.84   37.23
  -4   8  10  844.88   37.12
  -8   4  10  899.76   36.66
   4   8 -12  663.02   34.71
   8   4 -12  723.27   30.39
  -4   8 -12  596.04   33.76
   8   4 -12  735.06   29.61
   8  -4 -12  717.76   34.14
   4   8 -12  731.59   30.03
  -8  -4  12  722.02   29.66
   8   4  12  721.46   31.13
  -8   4  12  730.22   32.17
  -4   8  12  741.80   32.47
   8  -4  12  613.37   36.07
  -4   8  12  714.18   30.56
   5   8   1 1375.54   47.61
  -8   5   1 1438.11   53.58
  -8   5  -1 1376.72   48.16
  -5   8  -1 1384.42   63.98
  -5   8   1 1413.97   63.99
   8   5   1 1427.96   60.18
   8   5  -1 1378.36   57.57
  -5   8   1 1279.01   50.10
  -5   8   1 1400.54   47.53
  -8   5  -1 1374.59   51.78
  -8   5   1 1395.36   57.86
  -5   8  -1 1332.02   50.55
  -5   8   1 1367.08   47.36
   5   8   1 1368.03   47.57
   5   8  -1 1295.31   46.75
  -8   5  -1 1436.60   64.63
  -5   8  -1 1358.67   47.17
   5   8   1 1375.02   47.16
  -5   8   3 2354.89   85.48
  -5   8  -3 2178.90   84.02
   8   5   3 2155.11   76.75
   5   8  -3 2191.11   75.91
  -8   5   3 2217.06   83.05
  -5   8  -3 2288.81   91.78
  -5   8   3 2187.21   89.56
  -8   5   3 2121.52   76.31
   8   5   3 2139.13   72.38
  -5   8   3 2257.63   78.65
   8   5   3 2260.69   89.19
   5   8  -3 2357.45  100.84
  -5   8  -3 2252.07   99.51
  -8   5  -3 2359.44   85.18
  -5   8  -3 2172.47   72.11
  -5   8   3 2107.73   75.55
  -8   5   3 2116.62   72.07
  -5   8  -3 2145.23   77.87
  -8   5  -3 2244.21   72.42
  -5   8   3 2137.83   72.05
  -8   5  -3 2262.54   97.79
  -8   5  -3 2247.54   87.08
   5   8   3 2163.43   73.71
  -8   5  -3 2027.99   82.75
   5   8   5  409.05   18.02
  -5   8  -5  422.76   26.57
  -5   8   5  400.55   26.08
   5   8  -5  376.14   24.84
   5   8  -5  429.34   21.68
  -5   8  -5  330.10   24.09
   5   8   5  414.74   18.21
   8   5  -5  412.16   22.18
  -5   8  -5  446.05   22.26
  -8   5   5  378.55   27.58
  -8   5   5  438.55   30.38
  -8   5  -5  484.38   33.44
   5   8  -5  370.91   38.69
   5   8   5  411.09   19.73
   8   5   5  404.89   19.92
  -8   5   5  407.63   21.75
  -5   8   5  382.57   22.71
   8   5   5  450.02   31.69
  -8   5  -5  388.68   32.61
  -5   8  -5  390.17   39.00
  -8   5   5  416.62   21.30
  -8   5  -5  411.22   33.11
  -8   5   5  405.15   17.78
  -5   8  -5  435.38   18.24
  -5   8   5  425.23   18.13
  -8   5  -5  454.10   39.31
   8   5   5  410.94   21.49
  -8   5  -5  422.86   18.07
  -5   8  -7 1796.55   74.64
   8   5  -7 1844.27   71.62
   5   8   7 1937.91   65.20
   5   8  -7 1956.87   71.31
   5   8  -7 2025.72   76.18
   5   8  -7 1981.52   70.49
  -5   8  -7 1974.72   70.96
   8   5  -7 1962.10   69.02
   8  -5  -7 1867.59   75.05
   5  -8  -7 1923.87   68.86
   8  -5   7 1947.01   80.72
   5  -8   7 1895.59   73.25
   5   8   7 1958.26   69.72
  -8   5   7 1924.90   72.08
   8   5   7 1951.48   86.26
  -5   8   7 1964.26   74.28
   8   5   7 1873.96   69.70
  -8   5  -7 2028.46   89.98
  -5   8  -7 2003.46  101.74
   5   8  -7 2011.11  101.87
  -8   5   7 1855.61   69.95
  -5   8   7 1918.78   70.79
  -8   5  -7 2109.97   98.27
  -8   5  -9   98.77   14.03
  -5   8  -9  114.28   12.78
   8   5  -9  109.61   11.37
   5   8  -9  112.66   14.01
   5   8  -9  116.46   11.61
  -5   8  -9  102.35   13.51
   8   5  -9  114.50   12.01
  -5   8  -9  110.06   10.88
   5  -8  -9  111.35   10.24
   8  -5  -9   85.79   12.19
   8   5  -9  104.93   10.79
   8   5  -9   79.72    9.03
  -8  -5   9   63.32   17.17
   5   8  -9  108.62    9.44
   5   8  -9  116.12   10.90
   8  -5   9   85.32   14.78
  -5   8  -9   91.34   20.05
  -8   5   9  129.07   12.77
  -5   8   9  112.82   13.23
   5  -8   9  101.10   11.33
   5   8   9  107.31   10.93
   8   5   9   86.14   10.13
   5   8  -9   80.12   19.40
  -8   5   9   97.66   10.89
  -5   8   9  103.53   11.37
   8   5 -11 1282.90   48.47
   8   5 -11 1127.15   47.74
   5   8 -11 1176.98   52.37
  -8   5 -11 1277.28   56.22
  -5   8 -11 1062.63   51.18
   5  -8 -11 1220.34   44.56
   8   5 -11 1271.37   45.87
   8  -5 -11 1181.03   50.11
   5   8 -11 1254.73   47.40
   5   8 -11 1164.61   46.29
   8   5 -11 1243.90   48.37
   8   5  11 1233.78   47.84
  -8   5  11 1182.56   48.93
   8  -5  11 1111.81   54.82
  -5   8  11 1237.16   47.71
  -5   8 -13   54.95    5.55
   5   8 -13   53.82    5.79
   5   8 -13   42.54    5.47
   5   8 -13   43.35    5.00
   8   5 -13   46.85    5.37
   8  -5 -13   43.46    5.36
  -5   8  13   42.88    5.65
  -8   5  13   42.72    5.62
   8   6   0  421.08   26.81
  -6   8   0  365.90   19.10
  -8   6   0  395.19   17.25
  -6   8   0  382.45   19.57
  -6   8   0  409.81   17.41
   6   8   0  389.41   17.36
  -8   6   0  386.37   26.89
  -6   8   0  359.20   16.10
   8   6   0  407.00   18.78
   6   8   0  362.53   16.14
   8   6   2 1328.68   48.94
   6   8   2 1302.16   47.25
  -8   6   2 1384.35   54.91
  -6   8  -2 1389.48   64.87
  -6   8   2 1365.69   63.56
  -8   6   2 1408.03   50.58
  -6   8   2 1327.92   50.98
  -8   6   2 1215.19   62.27
  -8   6  -2 1415.69   65.72
  -8   6  -2 1298.88   46.22
  -6   8  -2 1282.02   51.11
  -6   8  -2 1290.14   46.08
  -6   8   2 1323.18   46.29
   6   8   2 1325.12   47.19
  -6   8   2 1347.12   46.79
  -8   6  -2 1197.76   51.73
  -8   6  -2 1394.69   66.81
   6   8   2 1329.29   46.80
  -8   6   2 1300.08   46.10
  -6   8   4   71.81   10.67
  -6   8  -4   86.36   11.72
   6   8   4   88.21    6.94
   6   8  -4   87.54    9.35
  -8   6   4   75.85   11.68
  -6   8   4   78.89   10.32
  -8   6   4   89.24   11.70
  -8   6   4   68.30   12.15
  -8   6  -4   80.31   14.66
  -6   8  -4   69.86   13.12
  -8   6   4   77.86    9.21
   8   6   4   84.49   13.29
  -6   8   4   63.16    9.41
   6   8  -4   57.21   15.60
  -6   8  -4   82.70   16.73
  -8   6  -4   66.68   13.05
   8   6   4   79.74    7.21
  -8   6  -4   90.34   13.65
  -8   6  -4   90.92    7.02
  -6   8   4  106.45    7.43
  -8   6   4   95.87    7.05
  -6   8  -4   88.72    6.91
  -8   6  -4   79.49   16.09
   6   8   4   77.25    7.85
   8   6  -6  334.38   20.55
  -6   8  -6  293.56   22.86
   6   8  -6  320.65   23.71
  -6   8  -6  296.43   22.97
   6   8   6  360.62   16.43
   6   8  -6  384.70   21.03
  -6   8  -6  369.57   20.43
   8   6  -6  324.20   17.41
  -6   8   6  325.01   16.24
   6  -8  -6  323.27   18.46
   6   8  -6  359.00   19.60
  -8   6  -6  328.25   28.25
   8   6   6  346.44   28.77
   6   8   6  380.36   18.96
  -8   6   6  345.15   20.90
  -6   8   6  319.89   21.24
   8   6   6  343.31   18.47
  -8   6  -6  276.60   31.42
   6   8  -6  289.93   36.38
  -6   8  -6  274.08   36.10
   8   6   6  362.29   20.30
  -8   6   6  326.16   19.25
  -6   8   6  376.11   20.41
   6   8  -8   20.32    6.62
   8   6  -8   12.99    6.12
   8   6  -8    7.31    5.81
  -6   8  -8   11.24    6.88
  -8   6  -8   25.56    7.42
   6   8  -8   35.34    9.48
  -6   8  -8    5.36    8.09
   8  -6  -8   22.60    7.86
   8   6  -8   11.05    5.21
   6  -8  -8   12.85    4.92
  -8  -6   8   20.40   12.47
   8   6  -8   13.66    4.40
   6   8  -8   15.16    5.35
   8  -6   8    2.02    8.74
   8   6   8   17.52    5.48
   6   8   8   12.02    4.97
   8   6   8   10.62    5.82
  -8   6   8   10.60    6.07
  -6   8   8   12.80    6.76
   6   8  -8   32.07   13.97
  -6   8  -8   19.96   12.80
   6  -8   8   11.00    6.04
  -8   6   8   10.44    6.07
  -6   8   8   10.96    6.19
  -6   8 -10   27.77    7.24
   8   6 -10   16.42    6.69
  -8   6 -10   36.66    8.73
   6   8 -10   24.77    9.37
  -6   8 -10   15.53    8.23
   8   6 -10   27.17    7.31
   8   6 -10   25.91    6.11
   8   6 -10   26.09    5.38
   6  -8 -10   21.55    5.18
   8  -6 -10   22.61    6.73
   6   8 -10   21.92    5.80
   6   8 -10   21.65    4.61
   8  -6  10   31.23   10.07
   6  -8  10   34.63    7.10
   8   6  10   24.48    5.89
  -8   6  10   23.03    6.88
  -6   8  10   26.67    7.40
   6   8  10   24.43    5.69
  -6   8  10   27.34    6.85
  -6   8 -12  102.20    9.32
   6   8 -12  105.48   10.01
   6   8 -12  107.93    9.22
   8  -6 -12   94.87    8.35
   6   8 -12  116.05    8.83
   8   6 -12   85.81    7.16
  -8   6  12   90.45    9.24
  -6   8  12   77.10    8.86
   8   6  12   98.42    8.56
   8  -6  12   96.02    9.89
   7   8   1  349.40   16.79
   8   7   1  370.28   17.55
  -8   7   1  356.48   28.79
  -8   7  -1  344.68   29.15
  -7   8   1  348.33   29.04
  -7   8  -1  311.85   27.59
  -7   8   1  331.59   18.24
  -8   7   1  336.67   17.82
  -8   7  -1  324.15   15.90
  -8   7   1  358.36   16.32
   7   8   1  330.21   14.84
  -7   8  -1  335.98   16.03
  -8   7  -1  328.14   18.92
   7   8  -1  343.34   16.51
   8   7  -1  368.41   17.51
  -7   8   1  342.71   16.08
   7   8   3   11.50    3.11
   8   7   3   17.19    3.51
  -8   7   3   16.33    5.76
  -7   8   3   24.42    6.19
  -7   8   3   13.10    5.22
  -8   7   3    6.10    5.22
  -8   7  -3   10.97    6.72
  -7   8  -3    2.16    5.54
  -7   8   3   10.04    6.15
   8   7   3    7.16    5.75
  -8   7   3    9.96    5.09
   7   8   3   16.90    3.86
  -8   7  -3   12.51    3.03
  -7   8   3   20.44    3.72
   8   7   3   14.14    3.96
   7   8   3   14.69    3.87
  -7   8  -3   13.28    3.34
  -8   7   3   10.04    2.95
  -8   7  -3   17.54    7.27
   7   8  -5  544.54   27.73
  -7   8   5  610.25   34.62
   7   8   5  588.55   23.94
  -7   8  -5  544.93   33.66
   7   8  -5  482.54   29.19
  -8   7   5  516.71   31.71
  -7   8   5  520.16   31.57
  -8   7  -5  623.86   41.20
   7   8   5  598.19   25.24
  -8   7   5  598.26   38.50
  -8   7   5  579.12   29.10
  -7   8   5  627.52   30.21
   8   7   5  555.88   37.57
   7   8  -5  452.98   41.40
  -7   8  -5  568.14   44.51
  -8   7  -5  527.23   40.96
   8   7   5  570.45   25.13
  -7   8  -5  586.02   23.91
  -8   7  -5  593.31   23.98
   7   8   5  620.44   27.38
  -7   8   5  553.78   23.56
  -7   8   5  623.26   28.30
  -8   7   5  600.35   23.94
   7   8   7    7.28    3.11
  -7   8  -7    4.00    7.17
   8   7  -7    3.80    6.48
  -7   8  -7   -2.18    5.67
   7   8  -7    2.87    7.08
   7   8  -7    1.94    5.78
   7  -8  -7    5.46    4.52
   8  -7  -7    1.86    4.93
   7   8  -7    2.51    4.56
   8   7   7    4.46    3.87
   8  -7   7   -6.04    9.72
   7  -8   7   -1.52    6.90
  -8   7   7   -2.16    5.89
  -7   8   7    3.37    5.53
   7   8   7    1.45    3.58
   7   8  -7    8.23   11.25
  -7   8  -7    8.19   11.19
  -7   8   7    6.27    5.47
  -8   7   7    0.87    5.63
   8   7  -9  504.41   32.30
  -7   8  -9  746.11   35.20
   7   8  -9  571.37   34.74
  -8   7  -9  715.99   35.80
   8   7  -9  663.70   32.26
  -7   8  -9  492.59   32.42
   8   7  -9  678.22   28.32
   7  -8  -9  676.08   29.78
   8  -7  -9  671.55   31.41
   8   7  -9  713.79   31.14
   7   8  -9  681.60   30.67
   8   7   9  714.37   30.88
   8  -7   9  636.29   38.21
   7  -8   9  642.70   34.85
  -8   7   9  704.25   34.13
   7   8   9  705.65   30.66
  -7   8   9  675.85   34.27
  -7   8   9  667.99   31.49
   7   8 -11   16.21    5.21
   8   7 -11   10.21    4.80
   7   8 -11   17.51    5.82
  -7   8 -11   11.05    5.06
   8   7 -11   24.19    5.49
   8   7 -11   16.96    3.81
   8  -7 -11   22.47    5.07
   7  -8 -11   12.67    4.00
   7   8 -11   19.92    4.98
   8   7 -11   22.86    5.30
   8  -7  11    6.82    5.51
  -8   7  11   13.26    5.02
   7  -8  11   14.74    4.91
  -7   8  11   12.61    5.29
   8   7  11   16.59    4.47
   8   7 -13  388.16   15.61
   7   8 -13  363.65   15.28
   8   8   0 2726.45   91.34
  -8   8   0 2761.21   90.76
   8   8   2  121.33    9.63
   8   8   2  127.50    8.97
  -8   8   2  128.43   10.99
  -8   8   2  116.19   16.87
  -8   8  -2  110.21   17.20
  -8   8   2  129.70   11.09
  -8   8   2  139.62    9.18
   8   8   2  141.20    9.99
  -8   8  -2  130.12    9.02
   8   8   4 1885.20   64.66
  -8   8   4 1814.80   71.87
  -8   8  -4 1827.83   87.01
  -8   8   4 1916.91   85.54
  -8   8   4 1910.17   71.01
  -8   8  -4 1884.10   64.80
  -8   8   4 1906.30   64.73
   8   8   4 1939.08   67.72
   8   8  -6  105.26   11.66
   8   8  -6  121.96   12.19
   8   8   6   98.82    9.09
  -8   8  -6  115.55   19.45
  -8   8   6  112.06   12.19
   8  -8  -6  110.71   10.97
  -8   8  -8 1083.44   47.46
   8   8  -8  998.59   46.82
   8  -8   8 1132.20   53.26
   8   8   8 1089.33   42.75
  -8   8   8 1069.71   47.40
   8   8  -8 1121.68   44.12
   8  -8  -8 1013.86   43.03
   8   8 -10  412.68   21.52
  -8   8 -10  431.13   24.69
   8   8 -10  399.81   21.85
   8  -8 -10  347.33   19.20
   8   8 -10  410.81   20.75
  -8   8  10  394.67   22.84
   8  -8  10  452.61   25.29
   8   8  10  434.78   20.92
   8   8 -12  188.16   10.77
  -8   8  12  195.57   11.93
   0   9   1 1486.86   61.33
   0   9   1 1452.35   54.50
   0   9  -1 1428.75   51.15
   0   9   1 1514.81   51.42
   0   9   1 1513.74   53.26
   0   9  -1 1551.81   53.86
   9   0   3  848.75   36.99
   0   9   3  881.02   42.38
   0   9  -3  989.32   35.69
   0   9  -3  877.30   42.65
   9   0  -3  893.04   36.84
   0   9   3 1019.55   39.52
   0   9  -3  809.35   56.53
   0   9   3  907.91   33.31
   0   9  -3  933.26   33.38
   0   9   3  916.09   34.46
   0   9  -5 1909.94   76.29
   0   9  -5 1940.89   77.02
   0   9  -5 2030.44   70.37
   0   9   5 2020.40   77.42
   0   9  -5 1952.23   69.88
   0   9  -5 1987.27   68.56
   0   9   5 2018.71   65.99
   9   0   5 2026.59   71.05
   0   9   5 2030.30   73.16
   0   9  -5 1933.58  100.93
   9   0   5 1659.46   72.62
   0   9   7   37.49    4.88
   0   9  -7   30.35    8.35
   9   0  -7   36.72    6.93
   0   9   7   32.93    4.74
  -9   0   7   40.67   10.39
   9   0  -7   28.87    7.59
   0   9  -7   27.99    6.34
   0   9  -7   37.35    6.41
   9   0   7   31.78    6.91
   9   0   7   24.56    9.20
   0   9   7   44.96    8.51
   0   9  -7   29.66   14.36
  -9   0  -7   35.69   14.87
   9   0   7   23.12    6.25
   0   9  -9 2794.98  101.12
   9   0  -9 2730.47   93.26
  -9   0   9 2629.96  114.69
   0   9  -9 2698.27   94.26
  -9   0   9 2626.25   92.51
   0   9   9 2570.04   96.18
   9   0   9 2533.78  111.29
   0   9  -9 2694.20  131.31
  -9   0  -9 2531.35  129.76
  -9   0  -9 2608.33  137.57
   0   9 -11   71.83   12.22
   0   9 -11   73.68    8.80
  -9   0  11   65.40    8.23
   9   0  11   87.58   11.11
   0   9  11   75.00    9.49
   0   9  11   83.40    9.02
   0   9 -13  620.53   25.34
   0   9 -13  655.62   28.56
   9   0  13  629.70   28.37
   1   9   0 2955.90  102.93
  -1   9   0 2877.10  102.15
   9   1   0 2855.48  101.92
  -1   9   0 2775.78   92.14
   1   9   0 2851.11   91.01
  -1   9   0 2731.44   90.71
  -1   9  -2   36.78    7.23
   1   9   2   44.95    8.18
   1   9  -2   57.88    9.01
  -1   9   2   44.67    7.77
   9  -1   2   39.62    5.60
   9   1   2   41.25    7.29
   1   9   2   46.73    6.50
   9   1  -2   42.00    6.87
  -1   9   2   40.81    6.68
   1   9  -2   51.75   12.74
  -1   9   2   49.30    5.88
  -9   1  -2   37.39    6.08
  -1   9   2   47.15    4.73
  -1   9  -2   35.17    4.24
  -1   9  -4 1285.07   56.59
  -1   9  -4 1366.41   49.65
   1   9   4 1305.07   56.60
  -1   9   4 1387.31   57.15
   1   9  -4 1392.79   49.78
   1   9  -4 1390.29   57.92
  -1   9   4 1386.24   53.29
   1   9   4 1374.89   52.10
  -1   9  -4 1313.94   46.23
  -1   9   4 1293.60   48.15
  -1   9   4 1331.80   46.32
  -1   9  -6  128.09   14.11
  -1   9  -6  138.47   11.67
   1   9   6  127.34    8.46
  -1   9  -6  111.77   12.65
   9   1  -6  144.77   11.75
  -1   9  -6  120.55   11.01
  -1   9  -6  108.56    9.80
  -1   9   6  107.86    8.18
  -9   1   6  112.51   15.58
   1   9   6  121.88    8.48
   9  -1   6  116.02   11.62
  -9   1   6  115.34    9.70
   9   1   6  126.62   11.05
  -1   9   6  127.23   12.77
   1   9   6  118.40   12.09
   9   1   6  121.08   17.21
   1   9  -6  114.18   22.63
  -9   1  -6  133.35   23.77
   9   1   6  109.68   12.55
  -1   9   6  129.79   10.33
   9  -1   6   92.86   10.35
   9  -1  -8  926.75   39.14
   1   9   8  937.14   35.28
  -1   9  -8  959.01   45.93
  -1   9   8  962.50   35.65
   1   9   8  954.71   35.95
   9   1  -8  990.04   41.15
  -1   9  -8  929.86   40.42
  -9   1   8  954.76   54.79
   1   9  -8  926.46   39.61
   9   1  -8  918.14   41.72
  -9  -1   8  991.77   56.86
   1   9  -8  951.62   40.44
  -9   1   8  959.63   39.70
  -1   9   8  997.07   44.23
   1   9   8  924.31   42.42
   9   1   8  918.52   41.78
   9   1   8 1026.04   56.73
   1   9  -8  946.46   68.60
   9  -1   8  919.18   54.61
  -9  -1  -8  941.67   73.91
  -1   9   8  957.62   39.61
  -9   1  -8  958.97   70.48
  -9   1  -8  889.16   65.94
  -1   9 -10  202.73   19.27
   9   1 -10  220.36   15.63
  -1   9 -10  226.43   15.74
   9   1 -10  215.41   17.22
   1   9 -10  230.51   16.12
   9  -1 -10  224.91   19.94
   9  -1  10  211.01   18.29
  -9  -1  10  242.83   15.65
  -9   1  10  224.55   15.54
  -1   9  10  178.92   15.92
   1   9  10  215.43   16.55
   1   9 -12  177.68   12.28
  -1   9 -12  112.11   14.22
  -1   9 -12  164.61   11.52
  -1   9 -12  155.07   11.16
   1   9 -12  156.07   11.31
   9  -1 -12  148.79   15.09
   9   1 -12  175.05   13.58
   9   1  12  179.83   13.92
   1   9  12  161.74   11.47
  -9  -1  12  177.07   12.02
  -9   1  12  183.30   12.58
  -1   9  12  172.87   12.82
   9  -1  12  168.18   15.41
   1   9  12  188.72   12.20
   9   2   1   15.60    4.40
   2   9   1   10.92    4.71
  -2   9   1    8.27    4.45
   9   2   1   13.00    5.78
   9   2  -1   14.51    5.30
  -2   9   1   23.85    4.68
  -2   9  -1   17.90    3.22
  -2   9   1   14.53    3.07
   2   9   1   14.46    4.41
  -9   2  -1   20.36    5.65
  -2   9  -1   15.73    4.25
   2   9  -1   15.60    4.37
  -2   9  -1   15.66    4.14
  -2   9   3  149.70   14.17
   9  -2   3  128.30    9.00
   9   2   3  106.52   11.94
  -2   9  -3  123.49   13.12
   2   9  -3  121.14    9.17
  -2   9  -3  145.88   10.06
   2   9   3  127.43   13.39
   2   9  -3  126.12   13.57
   2   9   3  118.18   10.26
   2   9  -3  108.76   21.03
  -2   9  -3   99.88   19.22
  -2   9   3  134.32   10.01
  -9   2  -3  116.24   11.60
  -2   9   3  132.09    8.12
  -2   9  -3  126.81    8.08
  -2   9   5  145.72   14.34
  -2   9  -5  144.60   11.30
   2   9   5  128.07    8.38
  -2   9  -5  104.09   13.46
   9   2  -5  140.55   11.49
   2   9  -5  144.35   15.38
  -2   9  -5  130.48   13.78
  -9   2   5  146.01   16.01
   2   9  -5  120.46    9.76
   2   9   5  131.20    8.56
  -2   9   5  135.91    8.69
   9   2   5  131.36   10.63
  -9   2   5  136.50   10.21
  -2   9   5  139.46   12.80
   2   9   5  133.68   11.85
   9   2   5  108.28   16.05
   2   9  -5  139.01   25.78
  -2   9  -5  116.23   22.81
   9  -2   5  127.12   10.97
  -2   9   5  106.38    9.86
  -2   9  -5  125.05    8.32
  -2   9   5  121.27    8.19
   9   2   5  121.12   12.18
   2   9   7  274.01   14.11
  -2   9  -7  248.75   20.66
   2   9   7  252.06   13.51
  -2   9  -7  303.22   19.12
   9   2  -7  264.06   17.75
   2   9  -7  268.88   21.08
  -2   9  -7  282.79   17.68
  -2   9   7  261.88   14.11
   2   9  -7  267.32   16.48
  -9   2   7  249.70   24.83
  -9  -2   7  282.66   27.40
   9   2  -7  298.07   17.99
   9  -2  -7  272.24   22.41
   9  -2   7  289.75   20.21
  -9   2   7  258.39   16.40
  -2   9   7  255.08   19.04
   9   2   7  266.67   17.61
   2   9   7  268.72   18.21
   9   2   7  297.96   27.51
   2   9  -7  254.02   34.45
  -2   9  -7  246.42   33.86
  -9   2  -7  283.96   33.12
  -9  -2  -7  233.54   34.41
  -9   2  -7  230.27   32.15
   9   2   7  271.66   20.65
  -2   9   7  305.80   17.66
   2   9  -9  337.32   24.25
  -2   9  -9  312.29   23.42
  -9   2  -9  284.14   23.60
   9   2  -9  291.20   19.13
   2   9  -9  278.84   18.00
  -2   9   9  308.68   14.92
   2   9  -9  272.83   18.54
   2   9  -9  323.12   18.92
   9   2  -9  279.75   18.96
   9   2  -9  260.27   19.48
  -2   9  -9  316.47   19.32
  -9  -2   9  312.69   32.62
   9  -2  -9  302.40   24.59
  -9   2   9  270.84   27.69
   9   2   9  300.11   28.18
  -9   2   9  305.62   18.83
   9  -2   9  232.36   26.50
  -2   9   9  263.32   19.94
   9  -2   9  308.68   22.95
   2   9   9  276.12   19.19
   9   2   9  300.68   19.77
   2   9  -9  292.91   37.45
  -2   9  -9  286.48   36.74
  -9   2  -9  300.36   36.45
  -9  -2  -9  347.31   46.87
  -2   9 -11  137.05   15.87
   2   9 -11  172.76   17.52
   2   9 -11  168.31   12.87
  -2   9 -11  169.27   12.74
   2   9 -11  158.69   12.73
   9   2 -11  175.29   13.56
   9  -2 -11  123.43   16.57
  -9  -2  11  151.54   12.02
  -9   2  11  150.58   12.59
  -2   9  11  149.16   13.32
   2   9  11  150.11   12.16
   9  -2  11  158.89   16.90
   2   9  11  168.00   12.21
   2   9 -13  133.46   10.34
   2   9 -13  106.52    8.10
  -2   9 -13  117.92    9.67
  -2   9 -13  104.80    7.48
   2   9 -13   93.43    7.09
   9  -2 -13   89.41    9.98
   9   2 -13  107.38    8.24
   9   2 -13  106.64    8.40
   9  -2  13   98.21   10.04
   2   9  13   97.97    7.49
  -2   9  13   99.99    7.92
  -3   9   0  179.61   16.29
   3   9   0  217.27   17.51
   9   3   0  204.62   17.48
  -3   9   0  197.59   10.67
  -3   9   0  181.36   11.56
   3   9   0  196.18   11.23
  -3   9   0  205.11   11.34
  -3   9  -2 3151.53  113.21
  -3   9   2 3149.23  113.10
   3   9   2 3102.24  113.33
   3   9  -2 3028.14  113.29
   3   9  -2 3063.13  102.50
   9   3   2 3388.12  117.79
  -3   9   2 3192.39  106.25
   9   3  -2 3118.45  109.73
   3   9   2 3002.04  102.87
   3   9  -2 3332.02  125.66
  -3   9  -2 3329.49  126.30
   9   3   2 3124.11  105.79
  -9   3  -2 3558.51  110.19
  -3   9   2 3115.07  100.85
  -3   9  -2 3084.39  100.81
  -3   9  -2 3059.80  104.00
  -3   9   2 3047.73  103.38
   3   9  -4   25.25    4.98
  -3   9  -4   22.22    5.97
   3   9  -4   12.60    7.73
  -3   9  -4   24.58    5.64
  -3   9  -4   21.92    8.84
  -3   9   4   32.11    7.16
   3   9   4   24.77    3.75
  -9   3   4   21.36    6.64
  -3   9   4   26.68    4.01
   3   9   4   26.94    3.76
   3   9  -4   27.24    4.80
   9   3   4   42.96   10.11
  -9   3   4   23.49    5.09
  -3   9  -4   21.46   13.41
   9   3   4   27.04    4.74
   3   9   4   22.92    5.18
   3   9  -4    3.61   12.12
   9   3   4   16.70    5.15
  -9   3  -4    8.49    9.09
  -3   9  -4   23.73    3.74
  -3   9   4   22.81    3.68
  -3   9   4   25.75    5.54
   3   9   6  750.95   28.89
   3   9  -6  686.90   37.54
   9   3  -6  777.38   34.16
  -3   9  -6  792.69   34.56
   3   9  -6  747.95   32.15
  -3   9  -6  693.26   37.55
   3   9   6  758.63   28.73
  -3   9  -6  678.69   37.22
  -3   9  -6  756.84   33.23
   9   3  -6  657.80   31.23
  -9   3   6  728.39   42.38
  -3   9   6  744.43   28.99
   3   9   6  766.01   32.07
  -9   3   6  733.82   32.16
   9   3   6  743.66   32.38
   3   9   6  788.46   33.77
   9   3   6  746.75   45.48
   3   9  -6  670.85   56.13
  -3   9  -6  753.05   58.11
  -9   3  -6  657.59   53.36
  -9   3  -6  771.03   52.22
  -3   9   6  739.77   32.22
   9   3   6  638.82   34.11
   3   9   8  379.82   17.38
   3   9  -8  401.29   27.01
   9   3  -8  391.15   22.66
  -3   9  -8  387.99   26.86
   3   9  -8  384.47   21.58
  -3   9  -8  388.11   22.02
  -9   3   8  337.97   30.53
   3   9  -8  410.03   21.81
   9   3  -8  379.77   21.43
   9  -3  -8  404.27   29.56
  -9  -3   8  424.72   37.17
  -9   3   8  358.20   21.41
   9  -3   8  428.81   27.46
  -3   9   8  393.39   24.73
   3   9   8  361.37   21.82
   9   3   8  400.30   32.95
   9   3   8  354.02   21.61
   3   9   8  401.75   22.07
   3   9  -8  404.67   43.32
  -3   9  -8  296.06   38.71
  -9  -3  -8  500.60   55.30
  -9   3  -8  317.77   38.96
  -9   3  -8  374.19   39.55
   3   9 -10  184.32   18.65
   9   3 -10  160.59   13.44
   3   9 -10  179.45   13.91
  -9   3 -10  206.56   19.93
  -3   9 -10  158.78   17.72
  -3   9 -10  178.13   13.79
   3   9 -10  188.80   14.14
   9   3 -10  164.77   13.34
   9  -3 -10  161.90   19.32
   9   3 -10  158.53   14.56
   3   9  10  148.44   12.55
  -9   3  10  145.69   13.27
  -3   9  10  163.81   15.17
   9  -3  10  169.67   18.46
   9   3  10  187.48   14.60
  -3   9  10  185.28   14.00
   3   9 -12  298.63   16.72
  -3   9 -12  252.25   18.69
   3   9 -12  246.30   18.77
   9   3 -12  289.01   16.06
   3   9 -12  323.81   16.49
   9  -3 -12  260.64   20.39
   9   3  12  319.67   17.60
  -9  -3  12  302.09   15.82
  -3   9  12  306.05   17.43
  -9   3  12  293.32   17.00
   9  -3  12  268.02   20.82
  -3   9  12  315.06   16.83
   3   9  12  326.25   16.12
  -4   9   1 1138.08   50.49
  -9   4  -1 1091.53   40.88
  -9   4   1 1063.80   44.82
   9   4   1 1074.38   50.90
   9   4  -1 1173.26   49.91
  -4   9   1 1023.37   41.47
  -4   9  -1 1062.04   41.20
  -4   9  -1 1065.27   38.50
  -4   9   1 1052.27   38.41
  -9   4  -1 1060.90   42.83
   4   9   1 1023.46   37.46
  -4   9   1 1093.41   41.02
   4   9   1 1091.05   39.41
  -4   9   1 1112.58   39.34
   9   4   1 1046.24   41.05
   4   9   3 1899.20   63.14
  -4   9   3 1955.57   76.23
   9   4   3 1975.41   70.79
  -4   9  -3 2014.25   76.50
   4   9  -3 1863.70   66.31
  -4   9  -3 1925.03   67.68
   4   9   3 1924.25   62.92
  -9   4   3 1839.24   73.90
   4   9  -3 1983.44   90.64
   9   4   3 1840.17   63.89
  -9   4   3 1815.53   66.25
  -4   9   3 1925.07   70.06
   4   9   3 1774.50   64.46
  -4   9  -3 1995.64   91.31
  -4   9  -3 1828.74   63.23
  -4   9   3 1837.29   63.30
  -9   4  -3 1915.05   89.26
  -9   4  -3 2158.11   76.72
  -9   4  -3 1876.44   79.01
  -4   9   3 1828.95   66.52
  -4   9  -5  542.85   31.14
  -4   9  -5  349.13   26.90
   4   9   5  476.26   20.67
   4   9   5  492.34   20.87
  -4   9   5  530.31   30.45
   4   9  -5  360.78   27.39
  -4   9  -5  507.76   25.24
   9   4  -5  528.27   25.73
   4   9  -5  530.36   24.47
  -4   9  -5  501.16   24.79
  -9   4   5  544.92   33.29
  -4   9   5  507.12   21.20
   9   4  -5  508.84   23.12
   4   9  -5  496.34   23.22
  -9   4   5  475.07   24.02
   9   4   5  503.75   23.20
  -4   9   5  486.37   26.45
   9   4   5  497.95   34.74
   4   9   5  473.17   23.12
   4   9   5  497.74   22.66
  -4   9  -5  392.35   44.06
   4   9  -5  412.07   43.73
  -9   4  -5  471.58   34.96
  -9   4  -5  492.79   20.74
  -9   4   5  486.25   20.54
  -4   9  -5  514.42   20.95
  -4   9   5  511.88   20.97
   9   4   5  471.58   25.00
  -4   9   5  476.21   23.69
  -9   4  -5  461.15   36.55
  -9   4  -5  559.35   45.79
   4   9  -7 1608.77   69.50
  -4   9  -7 1622.51   69.78
   4   9   7 1661.53   57.57
   4   9  -7 1716.11   63.28
   9   4  -7 1775.63   65.00
  -4   9  -7 1713.78   63.62
   4   9  -7 1677.39   62.41
   9   4  -7 1656.20   61.45
  -4   9   7 1651.45   58.41
   9  -4  -7 1561.83   71.07
   9   4   7 1666.60   79.10
   9  -4   7 1951.95   73.77
  -9   4   7 1671.37   63.41
   9   4   7 1643.17   62.38
   4   9   7 1732.36   62.70
   4   9  -7 1506.76   93.84
  -4   9  -7 1420.02   92.43
   4   9   7 1736.54   62.25
   9   4   7 1517.34   65.49
  -9   4  -7 1846.00   98.44
  -9   4  -7 1717.46   88.78
   4   9  -9  118.81   11.85
  -4   9  -9  125.28   15.81
   4   9  -9  118.83   15.34
  -4   9  -9  117.18   13.07
   9   4  -9  118.51   12.07
  -9   4  -9  107.13   15.09
  -4   9  -9  123.58   11.72
   9  -4  -9   94.83   14.98
  -9  -4   9  122.03   22.48
   4   9  -9  127.69   11.30
   9   4  -9  116.52   11.06
   9   4  -9  116.79   11.89
   9  -4   9  112.71   16.60
  -9   4   9  126.87   12.43
   9   4   9  119.81   11.73
   9   4   9  111.63   16.70
   4   9  -9  104.87   23.00
  -4   9  -9   74.36   20.13
  -9   4  -9  116.00   22.03
  -4   9   9   97.45   10.87
  -9   4 -11 1384.99   57.91
   4   9 -11 1273.90   48.00
   9  -4 -11 1266.84   53.84
   9   4 -11 1252.14   45.97
   4   9 -11 1291.35   47.50
   9   4 -11 1283.70   49.30
   9   4  11 1249.42   47.91
  -9   4  11 1174.51   48.00
  -4   9  11 1240.16   49.47
   9  -4  11 1211.85   57.62
  -4   9  11 1244.30   47.54
   4   9 -13   44.39    4.52
   9   4 -13   47.58    5.12
   9   4 -13   35.51    4.08
   9  -4 -13   37.29    5.24
   4   9 -13   39.96    4.91
  -4   9 -13   45.19    4.86
   5   9   0   13.79    2.97
  -5   9   0   12.84    5.69
  -9   5   0   16.01    4.06
   9   5   0    9.97    5.69
  -5   9   0    9.81    3.15
   5   9   0   10.07    2.47
  -5   9   0   11.36    3.12
  -9   5   0   15.23    6.34
  -5   9   0   11.47    4.28
   5   9   0   13.45    3.47
   5   9   2 2169.59   71.73
   9   5   2 2303.59   76.80
  -5   9  -2 2210.50   85.87
  -5   9   2 2299.83   86.21
  -9   5   2 2231.77   81.70
   5   9   2 2212.70   71.42
   9   5   2 2201.80   88.91
  -5   9   2 2238.73   77.37
  -9   5  -2 2114.38   94.78
   5   9  -2 2058.38   71.07
  -5   9  -2 2130.74   72.14
  -9   5  -2 2074.76   78.58
  -5   9  -2 2117.31   76.49
   5   9   2 2199.26   73.59
   5   9   2 2134.82   72.38
  -5   9   2 2173.51   73.38
  -5   9   2 2123.43   72.16
  -5   9  -4   19.15    7.46
   5   9  -4   21.90    5.75
  -5   9  -4   29.26    7.66
   5   9  -4   45.96    9.27
   5   9   4   26.40    4.14
  -5   9   4   30.55    7.48
  -5   9  -4   32.84    6.19
  -9   5   4   27.71    7.23
   5   9  -4   29.53    5.28
   5   9   4   31.24    4.34
  -5   9   4   21.18    5.62
  -9   5   4   34.99    6.81
  -9   5  -4   41.75   10.43
   9   5   4   19.80    4.09
   9   5   4   25.20    8.21
  -9   5   4   24.74    5.89
  -5   9   4   33.98    7.46
   5   9  -4   23.96   12.31
  -5   9  -4   17.85   10.40
  -5   9   4   30.28    6.11
  -9   5  -4   30.71    8.54
  -5   9   4   36.23    4.81
  -9   5   4   29.86    4.34
  -9   5  -4   33.38    4.45
  -5   9  -4   22.61    3.85
  -9   5  -4   11.60    8.90
   9   5   4   23.97    5.63
  -5   9  -6 1064.77   50.56
  -5   9  -6 1127.56   46.39
   5   9  -6  948.01   50.14
   5   9  -6 1104.37   44.81
   5   9   6 1120.76   40.02
   9   5  -6 1135.68   46.18
  -5   9  -6 1136.07   45.08
   9   5  -6 1114.76   42.48
  -5   9   6 1116.61   40.39
  -9   5   6 1176.35   57.06
  -9   5   6 1108.77   45.15
  -5   9   6 1106.07   47.63
   5   9   6 1125.78   42.67
   9   5   6 1130.26   59.61
   9   5   6 1087.20   42.79
   5   9  -6  873.12   69.53
  -5   9  -6  816.59   68.71
  -9   5  -6 1083.96   63.01
   9   5   6 1128.56   45.88
   5   9  -8  157.80   17.99
  -5   9  -8  206.12   20.11
  -9   5  -8  210.71   18.96
   5   9   8  183.05   10.78
   5   9  -8  209.54   15.82
   9   5  -8  214.76   16.07
  -5   9  -8  184.32   14.29
  -9  -5   8  146.62   24.52
   9   5  -8  190.89   13.45
   9  -5  -8  174.44   17.87
   5   9  -8  194.26   14.41
   9  -5   8  192.18   21.12
   5  -9   8  182.68   14.89
  -9   5   8  195.24   15.56
  -5   9   8  200.85   17.30
   5   9   8  173.07   13.63
   9   5   8  178.09   21.61
   9   5   8  177.02   13.88
   5   9  -8  181.93   30.97
  -5   9  -8  159.06   29.02
  -5   9   8  186.31   14.92
  -9  -5  -8  269.69   45.67
   5   9 -10  216.98   20.46
  -5   9 -10  192.90   19.49
  -9   5 -10  339.85   24.88
   9   5 -10  280.98   17.98
   5   9 -10  299.23   18.41
   9   5 -10  259.97   15.64
   9  -5 -10  235.20   19.46
   5   9 -10  289.64   17.08
   9   5 -10  300.98   18.44
   9   5  10  291.93   17.81
  -9   5  10  290.37   18.69
   9  -5  10  279.24   26.49
  -5   9  10  274.70   17.49
  -5   9 -12  330.28   17.02
   5   9 -12  345.67   17.81
   9  -5 -12  358.27   17.82
   5   9 -12  309.00   15.62
   9   5 -12  287.41   14.52
  -9  -5  12  274.45   14.45
  -9   5  12  288.70   16.60
   9   5  12  322.37   16.41
   9  -5  12  266.82   18.49
   5   9  12  295.34   14.72
   6   9   1    2.85    2.52
   9   6   1   10.49    3.91
   6   9  -1    2.56    1.93
   6   9  -1    2.94    2.30
   6   9   1    4.08    2.24
  -9   6   1   -0.92    2.67
  -6   9   1   -0.70    3.69
  -6   9  -1    4.23    5.01
  -6   9   1   -2.07    4.48
   9   6   1    1.61    3.48
  -6   9   1    1.84    2.31
  -9   6  -1    3.13    4.47
   6   9   1    3.97    2.45
  -6   9  -1    1.47    3.33
  -9   6  -1    7.99    6.69
  -9   6  -1    6.01    2.61
  -9   6   1    6.00    2.68
  -6   9  -1    0.92    2.22
  -6   9   1    8.19    2.74
   6   9   1    1.68    2.44
  -6   9  -3  139.75   15.51
  -6   9   3  132.40   15.25
   6   9   3  158.86    9.74
  -9   6   3  129.04   14.04
  -9   6   3  139.46   12.81
  -6   9   3  152.87   12.76
  -9   6   3  150.94   12.20
  -6   9   3  167.79   14.05
   6   9  -3  175.01   20.60
  -6   9  -3  139.35   18.54
  -9   6   3  142.95   18.40
  -9   6  -3  151.73   19.73
  -9   6   3  163.55    9.86
  -6   9   3  144.20    9.63
  -9   6  -3  166.70   21.98
  -9   6  -3  161.28   14.94
  -9   6  -3  133.35    9.20
  -6   9   3  151.71   10.91
   6   9   3  154.54   10.87
  -6   9  -3  157.77    9.76
   6   9   3  152.57   10.56
  -6   9  -5  204.90   18.91
  -6   9   5  202.78   18.80
   6   9  -5  192.16   17.15
  -6   9  -5  193.35   16.48
   6   9   5  183.51   11.25
   6   9  -5  223.77   15.25
   9   6  -5  219.28   15.58
   6   9  -5  193.85   13.42
  -9   6   5  189.74   19.29
   9   6   5  199.53   22.03
  -9   6   5  212.46   21.82
  -9   6  -5  187.60   22.18
  -9   6   5  195.97   15.10
  -6   9   5  201.87   16.05
   6   9   5  171.33   11.87
   9   6   5  194.57   12.60
   6   9  -5  202.33   27.71
  -6   9  -5  192.87   27.13
  -9   6  -5  197.33   11.50
  -6   9  -5  210.06   11.78
  -6   9   5  206.65   11.63
  -9   6  -5  203.20   27.54
   9   6   5  210.15   14.53
  -9   6   5  210.14   11.58
  -6   9  -7  318.73   25.76
   6   9  -7  351.58   27.30
   6   9   7  461.95   19.99
   6   9  -7  499.45   25.79
   9   6  -7  473.63   25.62
   9   6  -7  470.76   22.18
   6   9  -7  444.56   23.49
   9  -6  -7  481.02   27.72
   9   6   7  430.94   34.60
   9  -6   7  455.00   32.69
   6  -9   7  487.06   27.27
  -9   6   7  441.60   25.31
   6   9  -7  351.24   41.98
  -6   9   7  464.06   26.97
   6   9   7  467.65   22.88
   9   6   7  470.21   23.18
  -6   9  -7  286.49   39.78
  -6   9   7  446.63   24.50
  -9   6  -9  277.49   21.67
  -6   9  -9  214.87   19.62
   6   9  -9  179.26   19.15
  -6   9  -9  259.13   18.78
   6   9  -9  277.82   18.33
   9   6  -9  315.02   19.13
   9  -6  -9  259.49   19.17
   9   6  -9  265.23   15.51
   6   9  -9  278.22   17.11
   9   6  -9  281.79   17.42
   9   6   9  270.38   17.06
   9  -6   9  241.70   25.22
  -9   6   9  287.30   19.34
  -6   9   9  268.37   19.58
   6  -9   9  261.18   17.93
   6   9   9  288.71   17.31
  -6   9   9  254.42   17.51
  -6   9 -11  211.65   14.31
   6   9 -11  186.09   14.33
   9  -6 -11  209.32   13.97
   6   9 -11  180.91   12.51
   9   6 -11  198.61   13.41
   9   6 -11  200.88   11.56
   9   6  11  174.41   12.52
  -9   6  11  183.17   13.79
  -6   9  11  190.79   14.17
   9  -6  11  155.63   15.44
   6   9 -13   27.10    3.31
   9   6 -13   27.72    3.27
   7   9   0 1166.87   43.55
   7   9   0 1188.23   43.12
   7   9   0 1205.11   43.29
  -9   7   0 1220.98   47.55
  -7   9   0 1157.47   46.53
   9   7   0 1221.97   45.21
  -9   7   0 1237.81   43.92
  -7   9   0 1236.75   43.88
   7   9   2   93.70    7.33
   9   7   2   76.56    8.06
  -7   9   2   68.84    8.33
  -9   7   2   83.75    8.93
  -9   7   2   90.45    8.92
  -9   7   2   85.49   14.63
  -9   7  -2   77.64   14.59
  -7   9  -2   84.75   14.73
  -7   9   2   87.78   14.90
   9   7   2   81.76   13.25
  -7   9   2   75.54    9.15
  -9   7   2   87.19    7.08
  -9   7  -2   80.57    9.77
  -7   9  -2   90.67    7.19
  -7   9   2   91.68    7.24
  -9   7  -2   83.05    7.06
   7   9   2   87.33    7.60
   7   9  -2   72.66    6.93
   7   9   2   76.95    6.77
  -7   9  -2   85.71    9.75
  -9   7  -2   86.17   15.46
  -7   9   2   72.34    6.51
  -7   9   4 1062.16   50.76
   7   9  -4  994.59   40.80
   7   9   4  966.75   37.22
  -7   9  -4  915.70   48.97
  -9   7   4  995.83   43.97
  -7   9   4 1038.85   44.53
  -9   7   4  920.22   54.09
  -9   7  -4  989.11   57.06
  -9   7   4  978.73   42.16
  -7   9   4 1057.48   43.89
   9   7   4 1006.11   54.49
   7   9  -4  949.32   53.95
  -7   9  -4  950.36   54.37
  -7   9  -4 1005.48   37.54
  -9   7   4  947.99   37.03
  -7   9   4  987.92   37.35
  -9   7  -4 1046.28   37.85
   7   9   4  997.15   38.67
   7   9   4 1117.40   40.46
  -7   9   4  987.20   38.55
   7   9  -6    9.29    6.16
   7   9   6   12.91    3.40
   7   9  -6   10.05    6.39
  -7   9  -6   17.04    6.65
  -7   9   6    8.77    3.39
   7  -9  -6   10.54    4.41
   9   7   6    7.27    3.73
   7   9   6    7.58    3.82
   9   7   6    2.22    4.31
  -9   7   6   14.22    6.51
  -7   9   6   20.66    7.36
   7   9  -6    9.42   10.94
  -7   9  -6   12.34    9.89
   9   7   6    9.52    4.67
  -7   9  -8  870.25   40.42
  -9   7  -8  938.91   42.86
  -7   9  -8  843.06   40.52
   7   9  -8  871.84   42.41
   7   9  -8  930.80   39.95
   9   7  -8  940.18   40.15
   9   7  -8  846.93   34.33
   7  -9  -8  885.23   36.16
   9   7  -8  817.54   37.05
   9  -7  -8  905.67   39.83
   7   9  -8  920.11   38.06
   7   9   8  874.08   36.37
   9   7   8  888.60   36.79
   9  -7   8  804.24   46.80
   7  -9   8  910.23   42.19
  -9   7   8  908.65   40.91
  -7   9   8  906.48   41.53
  -7   9  -8  746.95   58.55
  -7   9   8  914.73   39.08
  -9   7 -10   64.45   10.54
   7   9 -10   60.42    8.63
  -7   9 -10   61.38    8.10
  -7   9 -10   74.67    9.79
   9   7 -10   54.45    6.08
   9  -7 -10   72.21    8.46
   7   9 -10   60.78    7.43
   9   7 -10   58.50    7.60
   9  -7  10   61.67   11.05
   9   7  10   69.71    7.79
   7  -9  10   57.70    7.77
  -9   7  10   52.24    8.10
  -7   9  10   59.04    8.93
   9  -7 -12   57.82    4.91
   7   9 -12   60.37    5.84
   9   7 -12   52.78    5.65
  -9   7  12   74.44    6.96
  -7   9  12   59.53    6.55
   9   8   1 1288.92   47.17
   8   9   1 1269.21   46.41
  -9   8   1 1305.72   67.22
  -9   8  -1 1255.73   66.76
  -8   9  -1 1285.77   67.50
  -8   9   1 1287.74   67.11
  -8   9   1 1230.60   48.07
  -9   8   1 1231.59   47.24
  -9   8  -1 1241.51   45.71
  -8   9  -1 1258.45   45.79
   8   9   1 1288.69   46.16
  -8   9   1 1252.30   49.40
   9   8  -1 1338.80   47.28
   8   9  -1 1224.70   45.67
  -9   8  -1 1145.81   48.89
   8   9   3  279.75   14.51
  -9   8   3  264.12   17.38
  -8   9   3  246.74   16.92
  -9   8   3  272.69   27.26
  -9   8  -3  225.63   25.83
  -8   9  -3  278.48   28.00
  -8   9   3  263.39   26.48
  -9   8   3  289.58   17.68
  -8   9   3  288.32   18.11
  -9   8   3  269.92   14.36
   9   8   3  277.93   15.87
  -9   8  -3  293.09   14.85
  -9   8  -3  254.50   18.52
  -8   9  -3  261.42   14.28
  -8   9   3  273.56   14.44
   8   9  -3  260.53   14.76
   8   9   3  268.19   15.41
  -8   9   5 1751.25   76.98
  -9   8  -5 1728.08   77.30
   8   9   5 1793.88   63.26
  -8   9  -5 1943.18   79.29
  -9   8   5 1786.14   77.51
  -8   9   5 1856.36   70.33
  -9   8  -5 1716.37   85.79
  -9   8   5 1696.61   81.95
  -9   8   5 1863.65   69.79
   8   9   5 1874.18   67.03
  -9   8  -5 1925.71   63.66
  -9   8   5 1805.87   63.00
  -8   9   5 1804.02   63.12
   8   9   5 1834.87   63.80
  -8   9  -5 1867.05   63.50
   9   8   5 1892.78   67.46
   8   9  -7   40.61    7.74
   8   9  -7   33.71    7.71
   9  -8   7   31.93   10.30
   8  -9   7   38.81    9.89
   9   8   7   40.22    6.19
  -9   8   7   46.71    8.90
  -8   9   7   31.80    8.49
   8   9   7   32.31    5.67
   9  -8  -7   48.89    7.78
   9   8  -7   35.50    6.96
   8  -9  -7   49.16    7.22
   8   9  -7   40.19    7.14
  -9   8  -9 1472.25   58.14
   8   9  -9 1469.83   53.80
  -8   9  -9 1507.32   57.47
   8  -9  -9 1392.24   51.49
   9  -8  -9 1365.37   52.67
   9   8  -9 1346.35   52.80
   8   9  -9 1399.69   52.98
   9  -8   9 1483.12   61.01
   8  -9   9 1502.34   58.38
   9   8   9 1414.36   52.11
  -9   8   9 1378.87   55.99
  -8   9   9 1391.72   56.39
   8   9   9 1367.00   51.81
   9  -8 -11   65.22    5.95
   8   9 -11   68.70    6.91
   8   9 -11   69.89    6.73
   9   8 -11   68.62    6.99
  -9   8  11   76.84    7.94
  -8   9  11   78.14    8.07
   9  -8  11   66.56    7.17
   9   9   0 2842.58   95.99
  -9   9   0 2897.58   95.70
   9   9  -2    6.53    3.29
  -9   9   2    6.19    4.23
  -9   9   2    2.28    4.29
  -9   9  -2    7.89    6.72
  -9   9   2    7.56    6.89
  -9   9   2    1.10    2.39
   9   9   2    1.87    3.02
  -9   9  -2    9.48    3.14
  -9   9  -4 1268.49   60.40
  -9   9   4 1222.93   59.36
  -9   9   4 1208.22   49.99
  -9   9  -4 1248.05   68.50
  -9   9   4 1075.84   63.03
  -9   9   4 1208.09   49.60
  -9   9  -4 1221.66   45.11
  -9   9   4 1249.25   45.10
   9   9   4 1248.71   47.59
  -9   9   6  243.65   17.73
  -9   9   6  260.94   13.70
  -9   9  -8  439.17   24.75
   9  -9   8  484.93   27.57
  -9   9   8  496.14   25.69
   9   9   8  392.99   20.04
   9  -9  -8  367.75   20.30
   9   9  -8  441.92   22.25
  -9   9 -10  265.83   16.69
   9  -9 -10  249.44   12.92
   9   9 -10  271.86   14.66
  -9   9  10  279.97   16.38
   9  -9  10  245.25   15.59
   9   9 -12  121.45    7.10
   0  10   0 1122.03   49.91
   0  10   0 1067.97   38.73
   0  10   0 1065.44   39.56
  10   0   2   11.10    4.42
   0  10  -2    4.02    3.18
   0  10   2   17.39    5.64
   0  10  -2    6.09    2.80
   0  10   2   11.17    4.68
  10   0  -2   12.43    4.80
   0  10  -2    8.72    7.30
   0  10   2    9.38    3.60
   0  10  -2    7.14    2.76
   0  10   2    4.21    2.49
   0  10   2   10.43    4.03
   0  10  -4  567.84   32.43
   0  10  -4  647.27   27.75
   0  10   4  586.74   34.02
   0  10  -4  646.23   35.45
   0  10  -4  631.09   27.98
   0  10  -4  638.13   26.88
   0  10   4  618.87   24.70
   0  10   4  640.58   30.62
   0  10  -4  526.28   46.94
   0  10   4  609.66   26.19
   0  10   6   10.27    3.17
   0  10  -6   10.93    9.18
 -10   0   6   10.29    6.29
   0  10   6    6.77    3.04
  10   0   6    2.21    5.23
   0  10   6   13.21    6.37
   0  10  -6    9.16   11.70
  10   0   6    9.14    5.66
   0  10   6   12.03    4.62
 -10   0  -6   -3.74    8.85
  10   0   6    3.55    5.72
   0  10  -8  429.79   30.71
   0  10   8  505.45   21.14
   0  10   8  459.16   20.96
   0  10  -8  460.16   24.77
  10   0  -8  475.41   28.09
 -10   0   8  401.92   34.47
 -10   0   8  488.50   23.88
  10   0   8  463.45   37.48
  10   0   8  460.31   26.42
   0  10   8  492.29   27.46
   0  10  -8  459.64   50.86
 -10   0  -8  484.98   47.22
 -10   0  -8  392.08   44.91
   0  10   8  497.42   24.40
   0  10 -10   14.10    9.21
   0  10 -10   11.64    4.28
   0  10 -10   -4.25    4.86
 -10   0  10    0.75    3.78
   0  10  10    5.70    5.19
   0  10  10    1.51    4.57
   0  10 -12   81.36    9.90
   0  10 -12   87.02    7.76
   0  10 -12   65.88    7.08
 -10   0  12   75.33    7.41
   0  10  12   74.96    7.07
  10   0  12  102.52   10.29
   0  10  12   85.75    7.97
  -1  10   1  178.79   16.62
   1  10   1  230.01   18.75
  10   1   1  245.95   19.69
  10   1  -1  207.15   17.06
  -1  10   1  183.69   13.20
  10   1   1  219.27   13.20
 -10   1  -1  188.64   12.68
  -1  10  -1  205.68   11.18
  -1  10   1  202.92   11.19
  10  -1   1  226.12   12.76
  -1  10   1  215.24   12.24
  -1  10  -1  195.51   11.99
  -1  10   3   33.98    7.83
   1  10   3   34.70    7.88
   1  10  -3   28.01    7.23
  10   1   3   25.25    6.11
  -1  10  -3   24.75    6.72
  -1  10  -3   28.57    7.02
  10  -1   3   40.03    5.80
  -1  10  -3   35.25    5.15
   1  10   3   42.46    4.72
  -1  10  -3   38.94    6.23
   1  10   3   29.08    4.01
  -1  10   3   29.38    4.09
  -1  10   3   30.81    6.80
   1  10  -3   22.01    9.26
   1  10   3   38.60    6.64
   1  10   3   39.13    5.42
  -1  10   3   30.80    5.39
 -10   1  -3   39.63    6.36
  -1  10  -3   28.31    4.16
  -1  10   3   30.89    4.30
   1  10  -5  558.87   33.13
  -1  10  -5  468.12   31.34
  -1  10   5  592.86   33.74
  -1  10  -5  580.47   27.06
   1  10   5  533.02   23.13
   1  10   5  566.58   33.05
   1  10  -5  575.72   25.19
  -1  10  -5  534.19   32.84
  -1  10  -5  601.89   27.53
   1  10  -5  621.40   27.42
   1  10  -5  589.20   26.00
   1  10   5  608.81   23.93
 -10   1   5  631.28   37.47
  -1  10   5  581.04   23.71
  10   1   5  592.90   27.36
  10   1   5  612.63   38.95
  -1  10   5  627.37   30.23
   1  10   5  628.24   29.50
  10   1   5  487.58   30.70
   1  10   5  573.38   24.91
  10  -1   5  536.49   29.40
  -1  10   5  531.06   25.26
  -1  10  -7  143.59   18.18
   1  10   7  146.29    9.61
  -1  10   7  160.56   10.10
  -1  10  -7  140.92   12.56
 -10  -1   7  187.02   21.73
  -1  10   7  143.32    9.97
   1  10  -7  146.28   12.04
   1  10   7  154.60   10.11
  10   1  -7  141.15   13.43
 -10   1   7  111.70   16.85
 -10   1   7  151.77   11.93
  10  -1   7  151.85   14.32
  10  -1   7  155.66   20.65
  10   1   7  135.84   12.77
  -1  10   7  167.23   15.09
   1  10   7  156.37   14.15
  10   1   7  161.13   21.25
   1  10  -7  142.06   29.27
 -10   1  -7  116.50   22.68
 -10  -1  -7  147.69   26.16
 -10   1  -7  149.55   26.28
  10   1   7   93.26   12.89
  -1  10   7  150.70   12.13
   1  10  -9  471.73   24.51
 -10   1  -9  595.28   31.43
  -1  10  -9  425.23   30.79
  -1  10   9  512.57   21.47
   1  10   9  495.96   21.07
 -10   1   9  504.79   38.50
  -1  10  -9  527.31   26.69
   1  10  -9  506.98   26.07
 -10  -1   9  440.04   37.37
  10   1  -9  532.03   28.14
 -10  -1   9  513.19   24.58
 -10   1   9  520.56   25.40
  -1  10   9  523.22   28.55
   1  10   9  490.31   26.83
  10  -1   9  452.31   37.07
  10   1   9  421.71   35.78
  10   1   9  510.83   27.49
   1  10  -9  495.59   52.57
  -1  10   9  539.32   25.96
 -10  -1  -9  407.59   48.49
 -10   1  -9  399.97   45.44
 -10  -1  -9  450.10   46.86
   1  10   9  509.10   24.72
 -10   1  -9  422.77   43.96
   1  10 -11   47.49    6.81
  -1  10 -11   34.36    9.71
  -1  10 -11   50.75    6.63
  10   1 -11   47.50    8.34
   1  10 -11   45.26    7.13
  -1  10 -11   45.47    6.99
 -10  -1  11   51.30    6.83
 -10   1  11   39.37    6.75
  10  -1  11   54.51    9.06
  -1  10  11   58.13    8.35
   1  10  11   53.73    7.29
   1  10  11   46.42    6.70
  -1  10  11   52.60    7.59
  10  -1 -13  149.86   10.43
  10   1 -13  137.54    9.29
  -2  10   0  851.83   42.84
   2  10   0  936.69   44.36
  10   2   0  885.47   43.26
  -2  10   0  834.47   32.72
  -2  10   0  873.28   33.50
   2  10   0  878.30   33.35
  -2  10   0  852.19   32.30
  -2  10  -2  668.18   35.74
  -2  10   2  688.86   35.87
  10  -2   2  612.02   25.90
  -2  10  -2  656.00   26.62
   2  10   2  574.32   34.42
   2  10  -2  624.99   35.35
  10   2   2  656.64   29.32
  10   2   2  586.74   36.35
  10   2  -2  631.61   32.66
   2  10   2  611.23   27.71
   2  10  -2  684.00   42.75
  -2  10   2  624.37   26.11
  -2  10   2  690.81   28.03
  -2  10  -2  630.07   25.39
 -10   2  -2  647.47   29.53
  -2  10   2  653.56   25.59
   2  10   2  702.07   28.31
   2  10  -4  321.33   23.86
  -2  10   4  342.25   24.18
   2  10   4  341.07   15.61
  -2  10  -4  325.40   22.25
   2  10  -4  300.04   21.82
  -2  10  -4  342.29   18.27
   2  10   4  349.51   24.47
   2  10  -4  340.57   17.34
  -2  10  -4  306.07   23.30
  -2  10  -4  327.46   18.60
   2  10  -4  317.93   17.60
  -2  10   4  349.84   15.84
   2  10   4  325.45   15.40
   2  10  -4  321.28   17.13
 -10   2   4  303.72   23.59
  10   2   4  315.27   17.38
  10   2   4  345.34   27.55
  -2  10   4  389.09   21.96
   2  10   4  357.54   19.27
   2  10  -4  272.96   33.15
  -2  10  -4  319.44   34.93
  -2  10   4  302.59   17.16
  -2  10  -4  330.08   15.68
  -2  10   4  307.81   15.43
   2  10   4  320.80   15.98
   2  10   6  167.52   10.42
   2  10  -6  150.79   18.32
  -2  10  -6  157.62   16.36
   2  10  -6  184.93   12.83
  -2  10  -6  131.71   17.74
  -2  10  -6  190.51   14.44
  -2  10  -6  172.33   13.52
   2  10  -6  173.65   13.26
  -2  10   6  164.81   10.68
 -10   2   6  137.94   17.77
  10   2  -6  149.72   12.70
   2  10   6  175.67   10.57
 -10   2   6  181.89   12.70
  10   2   6  184.22   13.56
  -2  10   6  170.84   15.36
   2  10   6  188.53   14.75
  10   2   6  185.66   21.47
   2  10  -6  117.56   26.97
  -2  10  -6   94.50   25.51
 -10   2  -6  146.75   25.43
  -2  10   6  175.54   12.87
  10   2   6  133.88   15.56
 -10   2  -6  137.36   21.92
   2  10  -8    1.64    4.56
   2  10  -8    6.64    9.36
  -2  10   8    3.02    3.04
   2  10   8    2.82    2.84
  -2  10  -8    8.30    9.07
 -10   2   8   -2.30    4.96
  10  -2  -8   -1.67    9.12
  -2  10  -8    5.48    4.75
 -10  -2   8    2.62    6.69
  10   2  -8    9.30    5.47
   2  10  -8   -0.84    4.35
  -2  10   8   12.79    3.78
  10  -2   8   -1.29    6.25
  10   2   8   10.74    5.66
  10  -2   8    2.50    5.41
  10   2   8   17.27    8.26
 -10   2   8   11.71    5.17
  -2  10   8    3.49    5.62
   2  10   8    1.96    5.09
   2  10  -8   19.68   15.76
  -2  10  -8    4.94   11.68
 -10  -2  -8    4.96   10.71
  -2  10   8    3.39    4.92
 -10   2  -8    3.73    7.21
 -10   2  -8   -4.15    9.83
   2  10 -10    7.83    4.67
  -2  10 -10   -4.57    8.83
   2  10 -10    7.81    9.89
 -10   2 -10   12.28    6.72
  -2  10 -10    8.33    4.83
  10   2 -10   11.35    5.60
   2  10 -10    9.97    4.95
  10  -2 -10    3.21    9.43
  10   2 -10    7.78    6.26
  10  -2  10    9.30    6.54
 -10  -2  10    7.55    4.20
 -10   2  10    5.71    4.32
  10   2  10    1.90    4.30
  -2  10  10    3.03    5.17
   2  10  10    6.30    4.57
   2  10  10    6.26    4.36
  -2  10  10    4.74    4.65
  -2  10 -12   33.57    4.90
   2  10 -12   32.12    5.37
  -2  10 -12   37.84    6.91
   2  10 -12   49.51    7.74
  10   2 -12   50.54    6.38
  10  -2 -12   33.39    7.98
   2  10 -12   33.09    5.31
  10  -2  12   23.71    6.49
  10   2  12   18.41    4.73
 -10  -2  12   44.25    5.25
 -10   2  12   35.84    5.54
  -2  10  12   26.50    4.90
   2  10  12   33.62    5.11
  10   3   1   58.25    7.07
   3  10   1   34.94    8.11
  -3  10   1   46.94    9.35
  -3  10   1   47.66    7.24
  10   3   1   71.71   11.77
  10   3  -1   58.68    9.68
  -3  10   1   43.97    5.26
 -10   3  -1   57.86    7.63
  -3  10   1   60.89    6.53
  -3  10  -1   51.57    5.35
   3  10   1   48.33    5.86
  -3  10   1   47.96    5.82
  -3  10  -1   53.65    6.54
  -3  10  -3  106.03    9.41
  -3  10  -3  104.65   13.38
  -3  10   3  139.96   14.88
   3  10   3  113.56    8.09
  -3  10  -3  136.75   12.66
   3  10  -3  139.45   12.56
  10   3   3  142.65   12.40
   3  10  -3  136.59   14.96
   3  10  -3  125.47    9.86
   3  10   3  118.47    8.06
  -3  10  -3  142.07   11.37
 -10   3   3  116.13   13.65
   3  10  -3  112.22    9.24
  -3  10   3  115.56   10.04
  10   3   3  118.15    9.02
   3  10   3  125.51   10.14
   3  10  -3  124.08   19.70
  -3  10  -3  147.76   21.28
  -3  10  -3  118.24    8.31
  -3  10   3  124.11    8.54
 -10   3  -3  138.01   12.79
  -3  10   3  140.69   10.78
   3  10  -5    7.03    4.19
  -3  10  -5    6.09    4.65
   3  10  -5    5.48    7.38
  -3  10   5    4.47    4.07
  -3  10  -5    6.64    6.66
  -3  10  -5    6.50    4.23
   3  10   5    5.56    2.87
  -3  10   5    5.81    3.00
   3  10   5   16.12    3.67
   3  10  -5    5.35    3.48
 -10   3   5    3.48    4.45
  10   3   5    2.84    3.14
  -3  10  -5   -7.84   11.36
  10   3   5    2.15    5.50
 -10   3   5    4.85    4.01
   3  10  -5    3.96   10.12
   3  10   5    7.45    4.20
 -10   3  -5    2.58    5.57
  -3  10  -5    4.69    2.40
  -3  10   5    0.47    2.03
  -3  10   5    2.18    3.72
  10   3   5    7.22    5.37
   3  10   7  356.12   16.72
   3  10  -7  270.53   24.92
  -3  10  -7  281.61   25.10
  -3  10  -7  346.57   21.42
   3  10  -7  384.89   20.81
   3  10   7  363.22   17.05
  -3  10  -7  377.43   21.29
   3  10  -7  346.59   19.74
  -3  10   7  337.07   17.05
  10  -3  -7  259.69   25.55
  10   3  -7  331.12   19.47
   3  10   7  343.58   20.55
  10  -3   7  380.80   24.68
  10   3   7  351.54   20.36
 -10   3   7  349.04   20.00
  -3  10   7  349.75   22.89
  10   3   7  332.17   30.75
   3  10  -7  283.34   40.37
  -3  10  -7  245.10   39.44
 -10  -3  -7  304.82   40.83
  -3  10   7  341.17   20.06
 -10   3  -7  371.54   36.89
 -10   3  -7  305.10   37.43
  10   3   7  332.19   24.33
   3  10  -9   54.76    8.16
   3  10  -9   53.06   12.53
  -3  10  -9   35.83   11.80
  -3  10   9   57.70    5.93
 -10   3  -9   59.53   13.80
   3  10  -9   53.00    8.18
   3  10  -9   75.32    9.25
  10   3  -9   64.51    8.74
  10  -3  -9   39.97   14.11
  -3  10  -9   50.52    8.30
  10   3  -9   59.70    9.38
  10  -3   9   56.39   11.60
  10   3   9   51.54    8.23
 -10   3   9   61.30    8.88
  -3  10   9   65.50   10.38
   3  10   9   55.53    7.89
  -3  10 -11  341.48   22.29
   3  10 -11  314.40   22.05
   3  10 -11  328.42   18.45
   3  10 -11  372.85   19.28
  10   3 -11  356.54   18.56
  10  -3 -11  298.62   23.42
  10   3  11  362.90   19.76
 -10  -3  11  327.06   17.18
 -10   3  11  342.55   19.20
  -3  10  11  359.32   20.18
  10  -3  11  342.96   23.60
   3  10  11  358.06   17.78
  10  -3 -13   64.55    5.97
   3  10 -13   57.37    4.74
  10   3 -13   45.53    4.29
  -4  10   0  362.80   25.75
 -10   4   0  344.63   20.20
  10   4   0  412.55   27.20
  10   4   0  365.42   18.51
  -4  10   0  385.75   17.36
  -4  10   0  358.08   18.53
  -4  10   0  349.12   16.67
   4  10   0  339.84   16.78
   4  10   2 1280.66   49.10
  -4  10  -2 1376.42   60.38
  -4  10   2 1380.32   60.34
  10   4   2 1290.75   50.53
   4  10   2 1326.42   46.22
  -4  10   2 1321.03   49.54
 -10   4   2 1369.02   56.72
  10   4   2 1339.54   62.80
  -4  10   2 1279.09   51.23
 -10   4  -2 1283.99   68.31
  -4  10   2 1398.82   48.87
  -4  10  -2 1324.31   47.19
  -4  10   2 1250.62   46.92
 -10   4  -2 1496.31   54.51
  -4  10  -2 1235.05   49.91
   4  10   2 1450.10   49.19
  -4  10  -4  245.86   21.23
  -4  10   4  278.37   22.10
  -4  10  -4  301.64   19.74
   4  10  -4  323.98   20.62
  -4  10  -4  294.10   16.98
   4  10   4  286.54   14.16
   4  10  -4  261.55   16.12
   4  10   4  268.50   13.74
  -4  10   4  247.05   13.72
   4  10  -4  260.43   15.37
 -10   4   4  294.99   22.88
  10   4   4  270.34   15.10
  -4  10   4  291.82   19.14
  10   4   4  279.10   25.37
   4  10   4  252.78   15.06
   4  10  -4  291.61   30.77
  -4  10  -4  334.67   33.19
 -10   4  -4  284.54   31.31
  10   4   4  278.52   17.44
  -4  10  -4  287.41   14.32
  -4  10   4  278.78   14.25
 -10   4  -4  287.02   26.20
  -4  10   4  271.25   16.62
   4  10   6  366.80   17.04
   4  10   6  369.75   17.09
  -4  10  -6  290.65   23.60
   4  10  -6  248.18   22.46
  -4  10  -6  333.39   20.64
   4  10  -6  373.59   20.52
  -4  10  -6  374.84   21.07
 -10   4   6  280.09   26.03
  10   4  -6  349.64   19.09
  -4  10   6  342.29   16.96
 -10   4   6  344.26   20.07
  10   4   6  355.52   19.44
  10   4   6  345.77   30.13
   4  10   6  364.81   19.16
   4  10  -6  292.24   38.80
  -4  10  -6  313.07   39.95
  -4  10   6  352.60   20.22
 -10   4  -6  327.45   32.77
  10   4   6  336.66   22.17
   4  10  -8   64.31    9.25
  -4  10  -8   50.93   12.19
   4  10  -8   40.98   11.50
   4  10   8   74.93    6.61
  -4  10  -8   79.64    9.96
   4  10  -8   69.62    9.19
  10   4  -8   85.95    9.06
  10  -4  -8   82.94   15.25
 -10  -4   8   59.55   15.09
  10   4   8   65.75   13.39
  10   4   8   82.95    9.34
 -10   4   8   55.34    8.56
   4  10  -8   67.89   20.53
  -4  10  -8   58.10   19.95
  10  -4   8   63.84   11.74
 -10  -4  -8   69.78   21.86
 -10   4  -8   55.62   14.97
   4  10 -10    4.05    4.43
  -4  10 -10   -2.45    7.40
 -10   4 -10    4.75    7.17
   4  10 -10    9.11    8.05
  10   4 -10    2.71    3.82
   4  10 -10    6.25    5.18
  10  -4 -10    2.89    7.78
  10   4 -10   10.12    5.55
  10   4  10    9.89    4.64
  10  -4  10    4.55    7.04
 -10   4  10    0.86    4.70
  -4  10  10    6.92    5.65
  -4  10 -12  178.48   11.24
   4  10 -12  163.91   11.23
  -4  10 -12  156.41    9.33
   4  10 -12  172.40   10.92
   4  10 -12  165.69   10.35
  10  -4 -12  180.03   12.48
  10   4 -12  160.90    9.64
  10   4  12  138.53   10.15
 -10   4  12  153.60   10.81
  -4  10  12  165.62   11.20
  10  -4  12  160.03   13.39
   4  10  12  157.95    9.69
   5  10  -1    7.60    2.89
  -5  10   1    1.04    2.80
   5  10   1    4.97    3.20
   5  10  -1    1.50    1.92
  -5  10   1    3.16    3.74
  -5  10  -1    2.69    3.03
   5  10  -1    0.56    3.15
   5  10   1    1.29    2.36
  10   5   1    5.18    3.31
  -5  10   1    2.58    3.48
 -10   5   1    9.02    3.62
   5  10   1    4.61    2.71
  -5  10   1   -0.73    4.05
  10   5   1    1.69    4.89
  10   5  -1    1.47    3.75
 -10   5   1    3.08    4.46
 -10   5  -1    2.18    4.72
  -5  10  -1    4.36    2.56
  -5  10   1    2.91    2.44
  -5  10   1    6.72    3.84
 -10   5  -1    7.19    4.70
  -5  10  -1    4.28    3.84
  -5  10   1    4.23    2.80
   5  10   1   12.02    3.63
   5  10   1    2.03    1.96
   5  10   3  280.62   14.01
  -5  10   3  238.77   21.07
  -5  10  -3  266.24   21.92
  10   5   3  296.23   18.14
 -10   5   3  282.96   21.12
   5  10  -3  278.92   15.14
 -10   5   3  275.61   17.10
  -5  10   3  264.36   17.57
  -5  10  -3  251.98   13.71
  -5  10   3  273.74   14.11
 -10   5   3  244.00   13.47
 -10   5  -3  221.47   26.91
 -10   5  -3  283.41   20.02
  -5  10   3  279.42   15.49
   5  10   3  268.41   15.41
 -10   5  -3  262.96   13.85
   5  10   5  125.50    8.72
  -5  10  -5  108.44   14.06
  -5  10   5  119.69   14.55
  -5  10  -5  137.83   12.05
  -5  10  -5  113.75   12.60
   5  10  -5  115.57   13.12
   5  10   5  115.92    8.57
   5  10  -5  105.96   10.60
  -5  10  -5  127.26   11.52
 -10   5   5  129.38   15.88
  -5  10   5  111.13    8.65
  10   5  -5  126.28    9.92
   5  10  -5  118.60   10.30
 -10   5   5  109.84   16.20
 -10   5  -5  104.65   16.79
 -10   5   5  107.69   11.03
  -5  10   5  119.99   12.58
  10   5   5  118.92    9.79
  10   5   5   77.74   14.83
   5  10  -5   94.63   19.50
  -5  10  -5   83.48   18.43
 -10   5  -5  115.05    8.37
 -10   5   5  113.31    8.34
 -10   5  -5  125.73   18.02
  -5  10  -5  116.92    8.55
  -5  10   5  124.55    8.84
 -10   5  -5  144.55   24.01
  10   5   5  135.35   12.03
  -5  10   5  109.49   11.02
   5  10  -7  339.52   20.50
  -5  10  -7  306.25   23.67
   5  10  -7  303.25   23.90
  -5  10  -7  321.78   20.68
   5  10   7  335.75   16.09
  -5  10  -7  312.59   19.59
  10   5  -7  322.74   18.05
  -5  10   7  316.73   16.44
  10  -5  -7  337.25   25.62
  10  -5   7  310.66   24.58
 -10   5   7  344.39   20.61
  -5  10   7  331.80   22.39
  10   5   7  303.90   29.15
  10   5   7  334.69   18.97
   5  10  -7  232.78   33.89
  -5  10  -7  273.26   36.95
 -10   5  -7  297.97   31.61
  -5  10  -9   59.73   11.09
 -10   5  -9   94.66   14.10
   5  10  -9  104.99   14.21
   5  10  -9   84.67   10.23
  10   5  -9   95.61    9.12
   5  10  -9   86.95    9.39
  10  -5  -9  105.64   14.53
  10   5  -9   92.52   10.25
  10  -5   9   94.63   14.67
 -10   5   9   83.71   10.39
  10   5   9  100.34   10.23
 -10   5 -11  248.28   18.20
  -5  10 -11  273.37   16.07
   5  10 -11  290.06   16.93
   5  10 -11  266.89   15.46
  10   5 -11  246.17   13.37
   5  10 -11  253.71   14.80
  10  -5 -11  267.52   16.81
  10   5 -11  242.18   15.29
  10   5  11  234.20   14.49
 -10   5  11  230.17   15.11
  10  -5  11  271.37   20.03
   5  10  11  214.76   12.89
   6  10   0  342.65   16.27
  -6  10   0  313.16   16.28
   6  10   0  327.42   16.76
   6  10   0  366.09   15.72
  -6  10   0  329.55   25.59
   6  10   0  357.08   16.49
  10   6   0  402.25   27.93
  -6  10   0  380.46   17.40
  -6  10   0  342.33   19.08
   6  10   0  330.60   15.64
 -10   6   0  328.14   26.76
 -10   6   0  355.79   19.90
 -10   6   0  381.46   17.40
  -6  10  -2   14.82    5.75
   6  10   2   15.54    3.63
  -6  10  -2   16.09    3.99
   6  10  -2   12.18    3.82
  -6  10   2   14.89    6.40
   6  10  -2   10.07    2.89
 -10   6   2    7.25    4.04
   6  10   2    9.38    2.99
 -10   6   2   10.76    4.49
  -6  10   2   12.95    5.37
 -10   6  -2    7.21    6.58
  10   6   2    9.39    5.45
   6  10   2    8.49    3.39
  -6  10   2    7.89    3.71
 -10   6  -2   11.68    3.38
 -10   6   2   18.12    3.59
 -10   6  -2    7.46    6.37
  -6  10  -2    8.58    2.90
  -6  10   2   11.60    3.36
   6  10   2   10.07    3.21
 -10   6  -2    6.54    4.61
  -6  10  -2   14.08    5.26
  -6  10   4  452.16   30.25
  -6  10  -4  421.61   29.54
   6  10   4  426.86   19.62
   6  10  -4  470.27   23.41
   6  10  -4  390.20   20.95
  -6  10   4  471.08   24.59
 -10   6   4  440.70   23.88
 -10   6   4  448.32   29.58
 -10   6   4  433.40   34.41
 -10   6  -4  469.98   36.55
 -10   6   4  450.26   23.36
  -6  10   4  415.11   24.44
  10   6   4  448.86   33.81
   6  10  -4  444.76   35.62
  -6  10  -4  464.81   36.12
 -10   6  -4  414.80   19.57
  -6  10   4  443.31   19.93
 -10   6   4  447.44   19.88
 -10   6  -4  430.58   39.54
   6  10   4  444.44   21.59
  -6  10   4  464.02   21.85
  -6  10  -4  443.04   19.97
   6  10  -4  402.59   18.86
  -6  10  -6  109.60   12.21
  -6  10  -6  100.06   10.98
   6  10  -6   96.25   12.25
   6  10   6   93.76    7.91
   6  10  -6  118.07   11.61
  10   6  -6   75.84    7.81
  -6  10   6   92.40    7.94
   6  10  -6   90.60    9.68
 -10   6   6  104.02   11.34
  -6  10   6  114.21   12.62
  10   6   6   82.86   15.18
  10   6   6   78.09    8.42
   6  10  -6   68.88   19.73
  -6  10  -6   80.69   19.17
  10   6   6   92.59   10.32
   6  10   8  315.99   15.34
 -10   6  -8  348.40   23.76
  -6  10  -8  322.17   21.92
   6  10  -8  310.01   22.63
   6  10  -8  360.31   21.05
  10   6  -8  315.64   17.38
   6  10  -8  308.71   18.70
  10  -6  -8  332.37   22.65
  10  -6   8  310.07   25.77
   6 -10   8  330.88   20.11
 -10   6   8  339.01   21.24
  -6  10   8  296.86   21.09
  10   6   8  332.71   18.78
  -6  10   8  342.44   20.71
   6  10 -10    6.06    4.80
  -6  10  10    6.29    2.35
 -10   6 -10    1.16    5.51
   6  10 -10    5.06    4.89
  -6  10 -10    9.13    4.88
  10   6 -10    7.44    3.26
  10  -6 -10    5.88    5.20
   6  10 -10    7.14    3.97
  10   6 -10   11.62    4.87
  10   6  10    7.32    3.70
  10  -6  10   13.52    7.03
 -10   6  10    2.46    4.34
  -6  10  10   13.42    5.80
  10  -6 -12    0.34    2.35
   6  10 -12    5.44    2.60
  -7  10   1  498.07   33.16
   7  10  -1  512.91   21.83
  10   7   1  520.50   24.01
   7  10  -1  503.48   21.97
  -7  10   1  507.63   24.47
 -10   7  -1  555.53   39.93
  -7  10  -1  505.78   38.42
  -7  10   1  497.25   37.58
 -10   7   1  505.90   38.67
 -10   7  -1  498.16   22.33
  -7  10  -1  527.86   22.63
  -7  10   1  506.10   25.06
 -10   7  -1  499.80   25.71
   7  10   1  500.43   22.00
  10   7  -1  539.52   24.11
  -7  10  -1  537.19   25.98
 -10   7  -1  439.56   34.47
  -7  10   1  491.73   20.97
   7  10   1  509.81   21.19
   7  10   3   23.00    4.31
  -7  10   3   13.93    6.56
   7  10  -3   22.98    4.09
   7  10  -3   29.36    5.37
  -7  10  -3   29.74    8.14
  -7  10   3   22.77    5.81
 -10   7   3   30.72    6.46
 -10   7   3   14.43    7.74
 -10   7  -3   30.94   10.59
 -10   7   3   20.20    5.55
  -7  10   3   25.78    6.52
 -10   7  -3   18.42    6.66
  10   7   3   26.81    5.33
  -7  10   3   17.96    3.95
 -10   7  -3   25.26    4.49
  -7  10  -3   25.51    4.38
 -10   7  -3   25.11   10.11
   7  10   3   27.86    4.81
  -7  10   3   28.93    4.55
   7  10   3   23.03    4.41
 -10   7   3   17.93    3.71
  -7  10  -5 1239.54   59.70
  -7  10   5 1255.31   59.87
   7  10   5 1336.40   46.84
   7  10  -5 1264.07   49.36
 -10   7  -5 1377.00   70.69
 -10   7   5 1245.23   65.20
 -10   7   5 1269.98   51.55
  -7  10   5 1357.09   53.98
  10   7   5 1317.84   66.70
   7  10  -5 1281.83   66.99
  -7  10  -5 1336.02   67.91
 -10   7  -5 1282.34   46.45
 -10   7   5 1229.57   46.04
  -7  10  -5 1296.76   46.60
  -7  10   5 1258.54   46.34
  -7  10   5 1258.50   47.88
   7  10   5 1304.93   48.17
   7  10   7   43.87    5.30
   7  10  -7   35.66    7.73
  -7  10  -7   49.78    8.23
   7  10  -7   44.53    8.58
  -7  10  -7   26.78    6.92
  10   7   7   48.14    6.59
  10  -7   7   54.83   11.85
   7 -10   7   40.64    8.74
 -10   7   7   37.18    7.97
  -7  10   7   35.59    8.68
  -7  10  -7   22.57   10.62
  10  -7  -7   38.39    7.84
  -7  10   7   32.57    5.06
 -10   7  -9  513.00   28.08
  -7  10  -9  518.05   24.21
   7  10  -9  544.66   25.75
   7  10  -9  494.08   25.05
  -7  10  -9  480.01   26.13
  10  -7  -9  456.59   24.37
   7  10  -9  469.26   23.40
  10   7  -9  450.81   23.40
  10   7   9  472.52   22.87
  10  -7   9  443.23   29.24
 -10   7   9  511.26   25.95
  -7  10   9  487.25   26.27
  10  -7 -11    0.86    2.84
   7  10 -11    2.02    3.20
  10   7 -11    0.51    2.97
  10  -7  11    1.37    3.44
 -10   7  11    1.15    3.39
  -7  10  11    0.61    3.33
   7  10  11    1.36    2.25
   8  10   0  941.39   37.08
  -8  10   0  980.15   37.57
  10   8   0 1008.40   38.77
 -10   8   0  993.02   41.25
   8  10   0  988.63   36.68
  -8  10   0  886.09   39.76
 -10   8   0  999.14   37.62
   8  10   2    5.32    2.95
  -8  10   2    3.69    4.72
  10   8  -2    2.59    3.19
  10   8   2    4.92    3.66
  -8  10  -2    7.41    6.70
   8  10  -2    5.23    2.99
 -10   8   2    4.59    4.50
  -8  10   2    5.37    3.40
 -10   8   2    4.83    3.89
  -8  10   2    3.26    4.46
 -10   8   2    5.11    5.52
 -10   8  -2    5.32    6.30
  -8  10  -2    7.86    8.01
  -8  10   2    2.50    5.41
  10   8   2    4.00    3.53
   8  10   2    1.17    2.78
 -10   8  -2    6.74    3.21
  -8  10  -2    3.34    2.47
  -8  10   2    3.87    2.83
  -8  10   2    6.81    4.93
 -10   8  -2    1.91    4.33
 -10   8   2    1.11    2.74
   8  10   2    6.39    2.62
  -8  10  -2    1.81    4.63
  -8  10  -4  758.21   43.74
  -8  10   4  781.74   43.89
   8  10  -4  741.45   30.84
   8  10   4  745.61   30.74
  -8  10   4  804.62   35.91
 -10   8   4  779.19   35.44
 -10   8  -4  729.45   50.19
 -10   8   4  696.78   47.74
 -10   8   4  744.53   34.21
  -8  10   4  829.75   36.11
 -10   8  -4  753.79   30.98
 -10   8   4  785.96   31.05
   8  10  -4  762.00   30.84
  -8  10  -4  793.03   31.28
  -8  10   4  779.04   31.08
  10   8   4  768.96   33.48
   8  10   4  787.42   30.12
   8  10   4  835.00   33.45
  -8  10  -6    5.09    5.21
  -8  10   6    6.69    3.26
   8  10  -6    3.95    3.66
 -10   8   6    9.75    5.96
  -8  10   6    4.24    5.80
  -8  10   6    4.21    2.48
   8  10   6   16.45    4.24
 -10   8  -8  288.49   19.30
   8  10  -8  262.40   16.14
  10   8  -8  262.56   16.25
  10  -8  -8  282.82   16.96
  10  -8   8  268.86   21.01
   8 -10   8  286.98   19.11
  10   8   8  220.55   14.15
 -10   8   8  264.94   17.96
  -8  10   8  251.32   18.15
   8  10   8  246.26   13.90
  -8  10  10   80.39    5.68
 -10   8 -10   62.00    8.33
  10  -8 -10   77.61    7.06
   8  10 -10   72.28    7.29
  10   8 -10   91.89    8.07
  10  -8  10   74.97    9.16
 -10   8  10   76.33    8.44
  -8  10  10   63.01    8.10
   8  10 -12   14.30    2.57
  10   8 -12   13.11    2.50
   9  10  -1   55.04    6.46
  10   9  -1   51.26    6.81
  10   9   1   55.80    6.86
   9  10   1   51.61    6.63
  -9  10   1   57.52    7.69
 -10   9   1   65.99    8.28
 -10   9   1   67.89   14.71
 -10   9  -1   66.35   14.73
  -9  10  -1   55.07   13.67
  -9  10   1   67.38   14.83
   9  10  -1   72.73    6.68
  10   9   1   57.04    6.91
 -10   9  -1   49.94    6.07
  -9  10  -1   57.03    8.61
   9  10   1   56.42    6.43
 -10   9  -1   43.76    7.82
  -9  10  -1   62.50    6.69
  -9  10   1   61.89    8.18
  -9  10  -3    3.87    4.18
  10   9  -3    3.80    3.41
  -9  10   3    1.91    4.52
   9  10  -3    9.60    3.70
  -9  10   3    2.47    4.20
 -10   9   3    4.08    4.32
 -10   9   3    4.66    4.32
  -9  10   3    5.05    4.60
 -10   9  -3   11.14    7.61
 -10   9   3   12.95    7.51
  10   9   3   11.22    4.07
 -10   9  -3    6.95    3.36
   9  10   3    0.67    3.10
 -10   9   3    5.11    3.29
  -9  10  -3    5.80    3.55
  -9  10   3    6.83    3.17
  -9  10  -5   80.22   13.10
 -10   9  -5   69.64   12.30
   9  10  -5  106.91   10.08
 -10   9   5   93.43   10.35
  -9  10   5   91.33   10.76
   9  10  -5  107.19    8.67
 -10   9  -5  112.01    8.53
 -10   9   5   93.84    7.81
  -9  10  -5   90.61    7.92
  -9  10   5   94.00    7.86
  10   9   5   96.42    9.74
  10  -9   7   43.36    9.26
   9 -10   7   56.91    9.26
 -10   9   7   64.05    9.09
  -9  10   7   68.70    9.87
  10  -9  -7   71.02    7.98
   9 -10  -7   50.32    6.58
  10   9  -7   55.40    7.92
 -10   9  -9  225.74   15.70
  -9  10  -9  229.88   15.66
  10  -9  -9  240.43   13.20
   9  10  -9  250.06   14.31
  10   9  -9  244.21   14.21
  10  -9   9  241.71   16.47
   9 -10   9  219.73   15.07
 -10   9   9  220.85   14.81
  -9  10   9  253.86   15.84
  10  10   0  382.87   20.22
 -10  10   0  438.35   20.60
  10  10   0  449.99   20.45
 -10  10   2  828.73   35.78
 -10  10  -2  818.18   54.44
 -10  10   2  777.17   52.79
 -10  10  -2  792.67   33.32
 -10  10   2  832.24   33.48
 -10  10   2  846.32   37.32
  10  10   2  875.44   34.59
  10  10  -2  864.22   33.93
 -10  10  -4  130.29   16.51
 -10  10   4  119.87   15.75
 -10  10   4  119.36   11.06
 -10  10   4  118.27   11.07
 -10  10   4  120.96    9.09
 -10  10  -4  104.75    8.79
  10  10  -4  107.71    8.92
  10  10   4  118.54   10.32
  10  10  -6  217.11   14.67
 -10  10   6  217.51   11.85
  10 -10  -6  225.87   13.94
 -10  10   6  208.70   15.10
  10  10  -6  205.10   12.47
  10 -10  -8   38.47    5.25
  10  10  -8   33.23    5.78
  10 -10   8   45.23    7.29
 -10  10   8   53.61    7.64
  10  10  -8   36.77    4.33
  10  10 -10    2.63    2.72
  10  10 -10    4.58    2.82
 -10  10  10    4.91    2.76
   0  11   1  104.33    9.18
   0  11  -1   89.58    8.66
   0  11   1  104.59    7.39
   0  11   1   97.84   13.16
   0  11   1   99.32    7.22
  11   0  -1  104.59   12.58
  11   0   1  108.70    9.01
   0  11  -1   98.90    7.73
   0  11   1  107.18    8.46
   0  11  -3 1141.84   45.34
  11   0   3 1048.12   42.30
   0  11   3 1059.12   51.61
   0  11  -3 1131.11   52.74
   0  11  -3 1069.76   42.16
   0  11  -3 1070.02   40.95
   0  11   3 1052.54   38.81
   0  11   3 1038.46   43.39
   0  11  -3 1154.01   63.19
   0  11   3 1140.58   43.24
   0  11   3 1045.52   40.40
   0  11  -5    9.04    3.62
   0  11   5    4.80    4.09
   0  11  -5    8.23    5.51
   0  11   5    2.41    2.60
   0  11  -5    7.70    6.91
   0  11  -5    1.62    4.14
   0  11   5    3.48    2.96
   0  11  -5    2.84    3.56
  11   0   5   -4.42    6.41
  11   0   5    6.89    4.33
   0  11   5    3.81    4.61
   0  11  -5   -3.75   10.25
   0  11   5    0.65    3.48
  11   0   5   13.29    6.39
   0  11   7 1208.13   42.63
   0  11  -7  931.48   52.18
   0  11  -7 1146.97   44.60
 -11   0   7 1092.91   60.66
  11   0  -7 1169.28   51.00
   0  11   7 1164.59   42.53
  11   0   7 1181.27   48.85
  11   0   7 1114.11   63.05
   0  11   7 1270.18   50.46
   0  11  -7  815.90   72.71
 -11   0  -7 1213.06   79.17
   0  11   7 1197.12   45.86
  11   0   7 1101.08   48.63
   0  11  -9   38.20    6.25
   0  11  -9   36.65   11.38
   0  11   9   36.30    4.71
   0  11  -9   34.77    7.31
  11   0  -9   41.14    9.49
  11   0   9   30.61    7.50
 -11   0   9   33.75    6.24
   0  11   9   35.20    7.86
   0  11   9   35.11    6.68
   0  11 -11  515.39   26.43
   0  11 -11  447.45   21.54
   0  11 -11  495.43   23.17
  11   0 -11  480.04   25.04
 -11   0  11  458.04   21.54
   0  11  11  488.08   22.31
   0  11  11  502.96   22.56
  11   0 -13    2.61    2.06
  -1  11   0   56.51    5.35
   1  11   0   49.57    9.75
  -1  11   0   49.03    9.42
   1  11   0   63.60    5.71
  -1  11   0   68.76    7.31
  -1  11   0   55.22    5.22
   1  11   0   60.45    5.34
  11   1   0   50.33    9.33
  -1  11   0   63.61    6.22
  -1  11   0   58.58    6.35
  -1  11   2 1008.12   40.88
  11  -1   2 1014.47   39.26
   1  11   2 1031.85   37.23
  -1  11  -2 1022.18   38.41
   1  11   2 1012.25   49.94
   1  11  -2 1056.78   50.49
  11   1   2 1142.31   42.28
  -1  11  -2 1079.54   50.86
  -1  11   2 1030.72   50.12
  -1  11  -2  999.15   40.47
  -1  11  -2  970.57   35.93
  -1  11   2 1011.98   38.94
  11   1   2 1048.67   52.63
  11  -1  -2 1075.32   46.60
  11   1  -2 1037.49   46.56
  -1  11   2 1022.47   41.93
   1  11   2 1054.59   41.31
  -1  11  -2 1034.06   38.11
  -1  11   2 1002.59   37.97
 -11   1  -2  965.36   39.73
  -1  11   2 1090.35   40.10
   1  11  -4   29.75    5.39
   1  11   4   30.97    4.51
   1  11   4   33.57    8.50
   1  11  -4   31.13    7.96
  -1  11   4   22.36    6.60
  -1  11  -4   26.14    7.28
  -1  11  -4   23.14    5.19
  -1  11  -4   32.98    8.14
  -1  11  -4   32.46    6.52
   1  11  -4   25.92    5.80
   1  11  -4   23.09    4.92
  -1  11   4   29.33    4.49
   1  11   4   26.42    4.43
  11   1   4   42.06    6.36
  -1  11   4   34.00    7.16
   1  11  -4   21.82   10.47
   1  11   4   19.35    5.52
   1  11   4   34.46    5.33
  -1  11   4   34.10    5.99
  -1  11  -6  749.58   33.10
  -1  11  -6  635.62   37.17
   1  11  -6  744.67   30.67
  -1  11   6  685.99   28.00
   1  11   6  726.65   28.27
   1  11  -6  690.52   31.96
   1  11  -6  681.43   30.83
   1  11   6  669.44   27.90
  -1  11   6  684.49   28.20
  11  -1   6  679.95   33.27
  11   1   6  664.14   32.13
  11  -1   6  690.07   45.15
  11   1   6  704.88   45.84
  -1  11   6  742.33   35.19
   1  11   6  732.40   33.69
   1  11  -6  698.22   60.03
 -11   1  -6  698.65   56.91
  11   1   6  551.36   34.99
  11  -1   6  667.70   32.58
  -1  11   6  721.81   31.13
   1  11   6  731.93   30.35
   1  11  -8   25.10    5.64
  -1  11   8   23.12    4.37
  -1  11  -8   21.06    9.67
   1  11   8   27.49    4.51
 -11  -1   8   31.92    9.81
 -11   1   8   16.36    7.52
  -1  11  -8   23.65    6.44
  11   1  -8   24.42    7.57
   1  11   8   22.50    4.45
  -1  11   8   28.76    4.90
  11  -1   8   20.25    7.00
  11   1   8   25.31    6.60
  11  -1   8   28.13   10.21
  11   1   8   22.71    9.15
 -11   1   8   17.85    5.08
  -1  11   8   23.22    7.36
   1  11   8   22.74    6.79
   1  11  -8    9.69   14.06
   1  11   8   33.73    6.44
  -1  11   8   22.81    5.99
 -11   1  -8   25.23   13.49
 -11  -1  -8   27.15   13.84
 -11  -1  -8   16.26   11.13
 -11   1  -8    7.58   10.38
   1  11 -10   70.45    7.87
  -1  11 -10   61.53   11.67
  -1  11 -10   68.64    7.70
  -1  11 -10   79.98    9.12
   1  11 -10   67.48    8.66
  11   1 -10   78.20    9.77
 -11  -1  10   64.94    7.62
 -11   1  10   73.74    8.37
  11   1  10   70.14    9.36
  -1  11  10   74.37    9.21
   1  11  10   75.89    8.56
   1  11  10   70.56    8.07
  -1  11  10   86.70    8.96
  -1  11 -12   85.05    7.87
   1  11 -12   68.28    6.23
   1  11 -12   69.31    6.57
  11   1 -12   72.91    7.18
  11   1  12   59.39    6.87
  11  -1  12   68.20    7.80
   1  11  12   71.82    6.47
  -1  11  12   73.14    6.70
  11  -2   1    0.50    2.46
  -2  11   1    9.95    4.33
   2  11   1    0.66    3.47
   2  11   1    1.64    2.60
   2  11   1   -3.18    4.34
  -2  11  -1    3.07    3.57
   2  11  -1    1.26    3.64
  -2  11   1    1.55    3.97
  11   2   1    1.29    3.86
   2  11  -1    1.58    1.98
  -2  11   1    2.02    2.21
  -2  11   1    0.57    2.80
   2  11   1    1.57    2.36
  11   2   1    4.98    4.53
  11   2  -1    4.26    3.88
  -2  11   1    1.51    2.74
  -2  11  -1    2.43    2.69
 -11   2  -1    3.50    3.38
  -2  11   1    1.58    3.09
   2  11   1    0.55    3.53
   2  11   3  119.41    8.32
   2  11   3  104.52   14.55
   2  11  -3  108.69   14.51
  11   2   3  162.67   13.18
  -2  11  -3  118.77    9.78
  -2  11  -3  133.14   15.61
  -2  11   3  124.32   15.21
  -2  11  -3  110.95   10.58
   2  11  -3  108.55    9.67
   2  11  -3  110.13    9.23
  -2  11   3  119.62    8.45
   2  11   3  123.33    8.50
  -2  11   3  114.21    9.83
  11   2   3  129.77   10.04
  -2  11   3  137.09   12.24
  11   2   3  120.67   16.42
   2  11   3  141.99   11.40
   2  11  -3  117.30   18.65
  -2  11  -3  144.80   20.58
  -2  11   3  143.61   11.24
  -2  11   3  120.13   10.28
  -2  11  -3  131.67    8.99
  -2  11   3  135.78    9.08
 -11   2  -3   88.82    9.89
   2  11   3  151.10   11.65
  -2  11   5   99.95   13.43
  -2  11  -5   70.45   11.45
   2  11   5   82.91    7.18
   2  11  -5   58.70   11.28
  -2  11  -5   78.77   11.86
  -2  11  -5   65.42    8.37
   2  11  -5   82.50    8.44
   2  11  -5   85.16    9.19
  -2  11  -5   73.46    9.23
   2  11  -5   72.19    8.02
 -11   2   5   81.13   13.21
   2  11   5   74.03    6.80
  -2  11   5   76.01    7.14
  11   2   5   61.40   12.82
  -2  11   5   75.91   10.77
   2  11  -5  101.73   21.47
  -2  11  -5   83.42   20.25
  11   2   5   64.98    8.28
   2  11   5   64.46    8.61
  -2  11   5   58.89    7.86
  11   2   5   74.89   11.30
  11  -2   5   77.39    9.04
   2  11   5   69.61    7.52
   2  11   7  364.61   17.60
   2  11   7  366.92   17.45
  -2  11  -7  315.04   25.45
   2  11  -7  342.74   26.01
  -2  11  -7  384.96   22.27
   2  11  -7  358.55   20.09
  -2  11   7  373.06   17.71
  11  -2  -7  310.40   25.67
  -2  11  -7  392.67   22.04
   2  11  -7  418.34   21.81
 -11  -2   7  366.79   32.35
  11   2  -7  370.69   21.58
  -2  11   7  375.40   17.89
 -11   2   7  328.29   19.35
 -11  -2  -7  329.98   40.52
  11   2   7  384.83   21.75
  11  -2   7  305.65   30.66
  -2  11   7  373.19   23.55
  11   2   7  345.64   31.59
   2  11   7  384.57   21.64
   2  11  -7  255.55   38.22
  -2  11  -7  286.52   40.92
 -11   2  -7  365.72   37.83
 -11   2  -7  341.09   40.61
   2  11   7  363.44   19.28
  11   2   7  303.47   25.28
  -2  11   7  362.63   20.53
  -2  11   9  127.41    8.81
   2  11  -9  150.03   16.48
 -11   2  -9  126.10   15.13
  -2  11  -9  104.89   14.82
   2  11  -9  135.93   11.40
   2  11   9  119.00    8.26
  11  -2  -9  123.18   16.68
  -2  11  -9  147.27   12.47
   2  11  -9  112.53   11.33
  11   2  -9  142.66   12.64
 -11   2   9  127.30   11.41
  -2  11   9  154.12   13.94
   2  11   9  131.72   11.54
  11   2   9  131.11   12.49
  -2  11   9  127.45   11.52
   2  11   9  118.16   10.59
  -2  11 -11  216.66   14.98
   2  11 -11  202.02   14.80
  -2  11 -11  164.20   10.84
   2  11 -11  156.68   11.37
   2  11 -11  176.69   12.19
  11   2 -11  198.33   12.80
  11  -2 -11  162.28   14.92
 -11   2  11  177.11   12.01
  -2  11  11  169.52   12.32
  11  -2  11  182.98   14.59
  11   2  11  170.60   12.65
   2  11  11  188.61   11.68
  -2  11  11  161.28   11.59
  11  -2 -13   78.82    5.73
  -3  11   0 1221.96   56.42
   3  11   0 1214.21   42.17
  -3  11   0 1164.22   44.22
   3  11   0 1115.17   44.03
   3  11   0 1187.38   56.32
   3  11   0 1156.87   41.40
  -3  11   0 1221.25   44.51
  11   3   0 1312.91   57.69
  11  -3   0 1159.15   42.54
  11   3   0 1174.84   44.96
 -11   3   0 1301.04   47.04
  -3  11   0 1199.88   43.37
  -3  11   0 1189.81   44.61
  -3  11   0 1130.82   42.94
   3  11   0 1181.42   43.42
  -3  11  -2  246.33   21.45
  -3  11   2  291.78   23.15
   3  11   2  258.85   16.15
  -3  11  -2  298.90   16.65
  -3  11  -2  292.33   15.50
  11   3   2  272.37   16.78
  -3  11   2  248.67   15.51
   3  11   2  283.81   23.52
   3  11  -2  309.24   24.00
   3  11  -2  272.54   13.51
   3  11  -2  288.80   14.95
 -11   3   2  295.49   21.20
  -3  11   2  280.71   15.88
   3  11   2  285.27   13.82
  11   3   2  289.33   24.85
  11   3  -2  232.17   19.42
  -3  11   2  261.34   17.01
  -3  11   2  253.27   14.82
  -3  11  -2  297.31   14.72
  -3  11   2  262.57   14.20
 -11   3  -2  305.95   18.36
  -3  11   2  300.98   15.81
   3  11   2  289.15   15.60
   3  11  -4  452.33   21.54
   3  11   4  447.61   19.61
  -3  11  -4  443.68   24.72
   3  11  -4  486.69   25.69
  -3  11  -4  431.02   22.13
  -3  11  -4  456.65   30.35
  -3  11   4  390.13   28.66
  -3  11  -4  405.69   22.84
   3  11  -4  419.62   21.59
  -3  11   4  423.74   19.38
   3  11  -4  416.84   20.84
   3  11   4  446.25   19.39
 -11   3   4  426.48   29.34
  11   3   4  424.55   21.05
   3  11   4  400.60   21.15
   3  11  -4  464.59   39.14
  -3  11  -4  405.66   37.10
  -3  11   4  411.71   21.75
  11   3   4  500.26   25.32
  -3  11  -4  418.13   19.52
  -3  11   4  424.01   19.59
 -11   3  -4  341.78   36.34
 -11   3  -4  404.31   33.11
   3  11  -6    6.31    4.19
  -3  11  -6    2.63    6.73
   3  11  -6   16.11    8.21
   3  11   6   13.20    3.56
  -3  11  -6   24.71    6.45
  -3  11   6   13.41    3.83
   3  11  -6   21.98    6.26
   3  11   6   11.24    3.51
 -11   3   6   14.21    6.52
   3  11  -6   19.54    5.20
  11   3  -6    5.60    4.18
  11   3   6   13.09    4.82
  11   3   6   19.40    8.46
  -3  11   6   23.45    7.86
   3  11  -6   11.79   12.01
  -3  11  -6   -7.86   11.39
   3  11   6   10.02    5.12
   3  11   6   15.05    4.33
  -3  11   6   13.12    5.56
  11   3   6   23.40    7.65
 -11   3  -6   14.71    8.54
   3  11  -8   39.66    7.35
   3  11   8   35.79    4.78
  -3  11   8   40.75    5.34
  -3  11  -8   25.62    9.77
   3  11  -8   32.42    9.91
  -3  11  -8   25.57    7.01
 -11  -3   8   18.49    8.52
  11   3  -8   26.61    6.60
  11  -3  -8   17.61   10.11
   3  11  -8   40.15    7.49
  -3  11   8   30.13    4.75
  11  -3   8   24.54    8.43
  11   3   8   32.50    6.88
  11  -3   8   33.02   10.16
  11   3   8   24.38    8.87
 -11   3   8   32.67    6.93
  -3  11   8   32.86    8.46
   3  11  -8    4.31   10.25
  -3  11  -8   13.01   12.60
   3  11   8   30.58    6.19
   3  11   8   29.63    5.71
  -3  11   8   52.09    8.52
 -11  -3  -8   45.47   17.62
 -11   3  -8   28.13   12.31
 -11   3  -8   39.80   12.85
   3  11 -10   45.99    7.06
 -11   3 -10   50.63    8.92
  -3  11 -10   33.08    7.97
   3  11 -10   48.35    9.37
  11   3 -10   37.90    7.71
  11   3 -10   56.02    7.55
  -3  11 -10   37.95    7.09
   3  11 -10   50.34    7.30
  11  -3 -10   31.58    9.83
  11   3  10   38.12    6.94
  11  -3  10   31.79    8.30
 -11   3  10   39.14    6.81
  -3  11  10   42.78    7.81
   3  11  10   38.67    5.97
  -3  11  10   49.01    7.49
   3  11 -12    2.26    2.70
  11   3 -12    2.52    2.56
  11  -3 -12    3.61    3.94
   3  11 -12    1.27    2.68
  11  -3  12   -0.66    3.21
  11   3  12    1.82    2.37
  -3  11  12    2.53    2.74
  -3  11  12    1.43    2.11
   3  11  12    2.85    2.28
   4  11   1  167.82   10.37
  -4  11   1  186.93   12.11
   4  11   1  181.60   12.25
  -4  11   1  159.49   17.79
  -4  11  -1  184.92   12.12
   4  11  -1  168.11   11.84
   4  11  -1  156.36   10.14
   4  11  -1  192.41    9.97
   4  11   1  190.13   10.42
  -4  11   1  166.95   11.97
 -11   4   1  186.67   15.59
 -11   4  -1  171.54   21.69
  11   4   1  193.26   19.81
  11   4  -1  238.01   19.95
 -11   4   1  180.99   19.58
  -4  11  -1  196.17   11.54
 -11   4  -1  192.27   13.94
  -4  11   1  187.32   12.42
  -4  11  -1  192.33   13.06
  11   4   1  181.78   12.61
  -4  11   1  185.30   11.27
   4  11   1  197.28   11.73
   4  11   3   57.10    5.81
  -4  11  -3   59.48   10.48
  -4  11   3   59.58   10.74
   4  11  -3   50.32    5.31
  11   4   3   53.36    8.01
  -4  11  -3   57.15    7.14
   4  11  -3   53.60    6.57
   4  11  -3   46.07    6.15
  -4  11   3   54.88    7.24
 -11   4   3   59.73   10.19
  11   4   3   77.04   13.45
  -4  11   3   59.78    8.82
 -11   4  -3   44.52    8.42
  -4  11  -3   62.37    6.37
  -4  11   3   56.59    6.05
 -11   4  -3   59.39   15.00
   4  11   3   61.00    7.66
  -4  11   3   51.59    7.00
   4  11   5  440.83   19.64
  -4  11  -5  506.57   26.38
   4  11  -5  440.61   25.70
  -4  11  -5  405.12   22.51
   4  11   5  434.09   19.42
   4  11  -5  465.31   22.84
  -4  11  -5  395.73   29.17
  -4  11   5  442.24   30.26
 -11   4   5  413.04   30.29
   4  11  -5  448.54   21.82
  -4  11   5  425.70   19.67
  11   4  -5  412.63   21.20
  11   4   5  410.28   21.06
  -4  11   5  461.28   25.64
  11   4   5  440.62   34.41
   4  11   5  396.70   20.45
   4  11  -5  423.84   40.05
  -4  11  -5  372.70   37.29
 -11   4  -5  386.96   33.56
 -11   4  -5  414.09   19.17
  -4  11   5  396.66   22.17
 -11   4   5  383.84   18.72
  11   4   5  450.28   24.92
  -4  11  -5  411.13   19.37
  -4  11   5  439.53   19.80
 -11   4  -5  355.89   38.80
 -11   4  -5  359.51   32.64
   4  11  -7    6.99    5.28
   4  11  -7   14.58    7.58
   4  11   7   10.98    3.25
  -4  11  -7    3.84    6.56
  -4  11  -7    4.97    4.20
  -4  11  -7   11.17    5.83
   4  11  -7   10.75    5.37
  11   4  -7    7.61    4.29
  -4  11   7   12.35    3.64
 -11   4   7   21.40    9.02
  11  -4  -7   11.89    9.57
  11   4   7    8.23    4.14
  11   4   7    9.82    6.71
 -11   4   7    2.60    4.36
  11  -4   7   14.51    6.87
   4  11  -7   19.45   12.47
  -4  11  -7   23.42   11.93
   4  11   7    7.95    3.75
  -4  11   7    4.45    4.95
 -11   4  -7   11.71    8.49
  11   4   7   18.31    7.90
 -11  -4  -7    4.87    9.42
  -4  11  -9  509.86   28.16
   4  11  -9  494.95   28.45
 -11   4  -9  449.45   29.65
  -4  11   9  464.58   20.40
   4  11  -9  496.93   24.78
  11   4  -9  508.36   23.76
   4  11  -9  458.94   23.93
  11  -4  -9  422.36   29.32
  11   4  -9  518.97   26.25
  11  -4   9  522.52   30.27
 -11   4   9  461.74   24.61
  -4  11   9  461.56   26.39
  11   4   9  540.16   25.43
   4  11   9  467.42   22.25
  -4  11   9  480.11   24.73
  -4  11 -11   24.63    3.79
   4  11 -11   21.96    4.56
   4  11 -11   20.56    5.19
  -4  11 -11   26.49    5.55
  11   4 -11   16.49    4.01
  11  -4 -11   25.27    6.76
   4  11 -11   23.44    4.82
  11   4 -11   20.65    4.56
  11  -4  11   13.47    5.21
  11   4  11   17.30    4.21
 -11   4  11   19.40    4.72
  -4  11  11   16.70    4.64
   4  11  11   18.04    3.85
  -5  11   0  787.42   32.57
   5  11   0  790.24   32.87
  -5  11   0  934.58   47.04
   5  11   0  813.42   31.55
   5  11   0  862.15   30.94
  11   5   0  908.96   46.59
 -11   5   0  816.33   35.77
  -5  11   0  850.55   32.91
  -5  11   0  854.43   35.06
 -11   5   0  869.82   49.05
  11   5   0  785.72   33.98
   5  11  -2    7.27    2.85
  -5  11  -2    3.71    3.54
   5  11  -2    5.08    3.63
  -5  11  -2    1.71    3.32
  -5  11   2   17.22    6.45
  11   5   2    3.02    4.00
 -11   5   2    4.84    3.84
   5  11   2    4.42    2.61
 -11   5   2   10.20    4.77
   5  11  -2    9.47    3.45
  -5  11   2    6.39    3.82
  -5  11   2    4.17    4.49
  11   5   2    1.98    5.74
  -5  11   2    5.99    3.45
   5  11   2   14.27    4.08
 -11   5  -2   10.69    8.17
  -5  11  -2    4.23    2.40
  -5  11   2   12.17    3.24
  -5  11   2   11.28    4.03
 -11   5  -2    2.81    4.71
  -5  11  -4  907.04   47.60
  -5  11   4  863.45   47.04
  -5  11  -4  958.94   38.79
   5  11   4  875.09   34.27
   5  11   4  904.81   34.77
 -11   5   4  827.56   45.59
  11   5  -4  916.21   35.91
   5  11  -4  877.43   36.48
 -11   5   4  884.58   36.91
  -5  11   4  909.30   34.76
  -5  11   4  895.55   40.24
 -11   5   4  924.69   53.77
 -11   5  -4  953.47   56.05
 -11   5  -4  926.40   35.14
 -11   5   4  874.86   34.58
  11   5   4  913.90   39.20
  -5  11   4  922.82   36.94
  -5  11  -4  903.52   34.96
  -5  11   4  925.42   35.15
 -11   5  -4  969.35   62.44
   5  11   4  956.20   37.34
   5  11  -6   12.05    5.64
  -5  11  -6    5.72    4.32
   5  11   6    2.07    2.55
  -5  11  -6    5.17    5.99
   5  11  -6   -1.10    5.44
  11   5  -6    2.71    4.19
   5  11  -6    8.39    4.42
  -5  11   6    4.78    3.04
 -11   5   6    1.98    4.27
  11   5   6    6.43    3.84
  11   5   6    2.40    5.19
 -11   5   6    4.30    4.47
  -5  11   6    4.48    5.52
   5  11  -6   -9.62    8.76
  -5  11  -6    9.50   11.03
   5  11   6    0.52    3.03
  -5  11   6    4.40    5.71
  11   5   6   -1.06    5.11
 -11   5  -6    3.81    9.74
  -5  11  -8  238.43   18.47
   5  11  -8  281.45   20.08
   5  11   8  245.20   13.07
  -5  11  -8  272.11   18.58
   5  11  -8  271.28   17.55
   5  11  -8  257.67   16.48
  11   5  -8  251.78   15.36
   5  11  -8  255.22   16.48
  11  -5  -8  241.16   20.36
  11  -5   8  279.05   21.79
 -11   5   8  231.91   16.73
  -5  11   8  275.77   19.38
  11   5   8  269.75   16.63
   5  11   8  240.81   14.32
  -5  11 -10   94.62    9.53
   5  11 -10  106.62   10.48
  -5  11  10   87.59    6.31
 -11   5 -10   93.95   11.56
   5  11 -10   82.50    8.57
  11   5 -10   88.07    7.78
  11  -5 -10   86.72   10.70
  11   5 -10   95.09    9.78
  11   5  10   84.04    8.37
  11  -5  10   97.84   12.19
 -11   5  10   65.14    8.21
   5  11  10   90.20    7.66
  11  -5 -12   26.38    3.85
   5  11 -12   22.13    3.62
  -5  11 -12   24.58    2.86
   6  11   1  161.27   11.29
  -6  11  -1  182.38   11.44
   6  11  -1  169.54   11.44
   6  11  -1  169.22   10.69
  -6  11   1  164.39   18.39
   6  11   1  182.18   10.31
   6  11   1  185.31   11.10
   6  11  -1  158.57    9.86
   6  11  -1  168.16   10.83
  -6  11   1  182.12   12.76
  11   6   1  160.09   18.97
  -6  11  -1  188.85   13.60
  -6  11  -1  184.76   11.46
  -6  11   1  194.02   13.42
 -11   6  -1  149.57   13.04
 -11   6  -1  163.83   20.90
  -6  11   1  178.82   10.86
   6  11   1  188.42   11.18
   6  11   1  153.28   10.05
 -11   6  -1  181.06   11.29
  -6  11   3   23.16    7.54
   6  11   3   25.99    4.66
  -6  11  -3   22.48    5.24
   6  11  -3   23.57    5.53
  -6  11  -3   35.65    8.64
   6  11  -3   18.96    4.59
 -11   6   3   36.53    7.89
 -11   6   3   28.65    5.84
  -6  11   3   10.83    5.21
 -11   6   3   29.87    9.94
 -11   6  -3   31.63   10.21
  11   6   3   27.97    9.09
 -11   6  -3   34.69    8.48
 -11   6  -3   25.70    4.42
 -11   6   3   23.19    4.17
  -6  11  -3   21.29    4.25
  -6  11   3   21.25    4.17
  -6  11   3   23.45    4.82
   6  11   3   25.24    4.87
 -11   6  -3   29.49   10.69
  -6  11  -5  616.92   37.95
  -6  11   5  547.14   36.01
  -6  11  -5  612.47   30.14
   6  11   5  630.11   26.22
  -6  11   5  638.86   26.15
   6  11  -5  623.20   28.39
 -11   6   5  619.30   42.26
 -11   6  -5  583.06   43.56
 -11   6   5  617.08   29.42
  -6  11   5  585.82   30.99
  11   6   5  644.51   43.31
 -11   6  -5  614.21   25.93
 -11   6   5  619.20   25.79
  11   6   5  636.72   30.53
  -6  11  -5  628.39   26.20
  -6  11   5  611.60   25.98
  -6  11   5  633.00   27.84
 -11   6  -5  667.33   51.90
   6  11   5  691.89   28.60
  -6  11  -7  124.46   12.37
   6  11  -7  137.98   13.12
   6  11   7  121.00    8.80
  -6  11  -7  137.76   12.76
   6  11  -7  159.69   12.99
  11   6  -7  120.11    9.87
  -6  11   7  110.50    8.81
  11  -6  -7  113.74   13.16
 -11   6   7  142.72   12.62
  -6  11   7  130.83   13.53
  11   6   7   97.65   16.48
  11  -6   7  125.15   14.80
  11   6   7  122.73   10.43
   6  11  -7  110.17   19.57
  -6  11  -7  143.47   21.45
  -6  11  -9  484.54   22.86
   6  11  -9  487.60   23.53
 -11   6  -9  395.84   24.88
  -6  11   9  408.16   18.20
   6  11  -9  410.12   21.96
  11   6  -9  444.76   19.77
   6  11  -9  384.33   21.24
   6  11  -9  433.53   21.56
  11  -6  -9  429.31   23.86
  11   6  -9  454.82   22.56
  11   6   9  428.61   21.09
  11  -6   9  470.35   28.43
 -11   6   9  460.75   23.36
  -6  11   9  414.26   23.68
   6  11   9  382.23   18.91
  11  -6 -11   13.67    4.01
   6  11 -11    6.21    3.15
  11   6 -11   16.74    3.87
  11   6  11   14.54    3.42
  11  -6  11   16.00    4.81
 -11   6  11   13.80    3.87
   7  11   0  129.88    9.60
  -7  11   0  144.03   17.38
   7  11   0  150.01    9.70
   7  11   0  142.26    9.71
 -11   7   0  137.64    9.90
  -7  11   0  131.86    9.83
 -11   7   0  137.27   12.04
  11   7   0  140.82   10.85
  -7  11   0  139.82   11.66
   7  11   0  124.08    8.69
   7  11  -2  331.74   16.82
  -7  11  -2  376.08   28.23
  -7  11   2  368.43   27.81
   7  11  -2  308.47   15.33
   7  11   2  308.09   16.18
   7  11  -2  329.05   17.17
  -7  11   2  304.60   18.31
 -11   7   2  313.06   18.14
 -11   7   2  370.58   33.22
 -11   7  -2  284.94   30.03
  -7  11   2  289.16   18.81
 -11   7  -2  326.88   16.74
 -11   7   2  348.35   17.16
  11   7  -2  353.61   18.67
  -7  11  -2  360.76   17.33
  -7  11   2  322.60   16.68
  -7  11   2  326.34   18.98
 -11   7  -2  301.62   20.18
 -11   7  -2  288.54   29.76
  -7  11  -2  331.78   20.20
   7  11   2  327.70   16.56
  -7  11   2  317.29   15.73
   7  11   2  340.96   16.13
  -7  11  -4  235.09   22.00
  -7  11   4  197.61   20.13
  -7  11  -4  188.03   12.49
   7  11  -4  192.96   12.93
   7  11   4  204.57   12.39
   7  11  -4  183.47   13.02
  -7  11   4  215.97   15.52
 -11   7   4  230.98   15.52
 -11   7   4  163.37   21.45
 -11   7  -4  233.46   26.67
 -11   7   4  191.04   13.69
  -7  11   4  195.92   15.37
  -7  11   4  209.21   12.37
 -11   7  -4  194.64   12.12
 -11   7   4  203.55   12.22
  -7  11  -4  208.19   12.55
  -7  11   4  220.79   12.64
   7  11   4  183.03   11.83
  -7  11  -6  275.59   18.64
   7  11   6  267.81   14.65
   7  11  -6  286.31   17.27
  -7  11   6  263.77   14.48
 -11   7   6  277.68   18.08
  -7  11   6  294.87   19.74
  -7  11   6  259.15   14.06
  -7  11   6  343.48   16.74
   7  11   6  289.95   16.02
  11   7   6  281.77   18.40
 -11   7  -8   31.61    7.46
  -7  11  -8   21.40    6.28
   7  11  -8   32.53    6.18
  11  -7  -8   30.73    6.80
  11   7  -8   28.76    6.34
  11   7   8   20.93    4.73
 -11   7   8   30.76    6.71
  -7  11   8   36.08    7.87
  11  -7   8   37.77    9.16
  -7  11   8   28.95    5.21
   7  11   8   20.03    4.67
  -7  11  10    4.99    2.07
 -11   7 -10    5.50    4.16
  11  -7 -10   12.76    3.95
   7  11 -10    3.68    3.25
  11   7 -10    9.01    3.85
  11  -7  10   14.53    5.42
  11   7  10    9.63    3.09
 -11   7  10    2.40    3.29
  -7  11  10    5.93    3.77
   7  11  10    6.39    2.32
   7  11 -12    9.92    2.21
  11   7 -12   12.91    2.28
  11   8   1   48.52    6.74
   8  11  -1   50.45    5.99
  -8  11   1   52.88   10.65
  11   8  -1   51.60    6.79
  -8  11   1   45.63    6.96
 -11   8   1   47.30    7.24
   8  11  -1   40.39    5.88
 -11   8   1   63.81   14.27
 -11   8  -1   61.78   14.19
 -11   8  -1   59.37    6.40
  -8  11  -1   56.13    6.45
   8  11   1   58.55    6.28
 -11   8   1   72.75    9.21
  -8  11   1   55.45    7.86
 -11   8  -1   39.90    7.67
  -8  11  -1   60.61    8.55
   8  11   3  621.11   26.09
   8  11  -3  562.17   24.88
  -8  11  -3  621.09   39.23
  -8  11   3  627.59   39.07
   8  11  -3  607.36   27.13
  -8  11   3  621.93   29.04
 -11   8   3  620.62   28.60
 -11   8   3  656.91   45.46
 -11   8  -3  471.80   40.89
 -11   8   3  568.51   26.91
  -8  11   3  631.75   29.89
  11   8  -3  614.61   27.48
 -11   8  -3  596.94   26.07
 -11   8   3  618.12   26.16
  -8  11   3  642.60   29.61
  -8  11  -3  631.57   26.49
  -8  11   3  601.80   26.10
   8  11   3  609.17   24.53
  11   8   3  615.05   28.17
   8  11  -3  620.04   25.13
   8  11   3  619.07   26.87
   8  11   5    3.26    3.28
   8  11  -5    2.24    3.47
  -8  11  -5    7.09    5.14
  -8  11  -5   -1.90    4.41
   8  11  -5    2.20    3.69
  -8  11   5    2.04    2.95
 -11   8  -5    2.62    5.06
 -11   8   5   -0.80    4.46
  -8  11   5   -0.93    5.10
 -11   8  -5   -0.53    2.45
 -11   8   5    5.16    2.54
  -8  11  -5    1.61    2.38
  -8  11   5    0.53    2.22
   8  11   5    0.48    2.76
  -8  11  -7  492.61   26.10
  11  -8  -7  474.10   24.06
  -8  11   7  493.00   20.96
  11   8  -7  467.36   24.16
  11  -8   7  496.87   28.90
   8 -11   7  479.13   25.72
 -11   8   7  472.44   24.66
  -8  11   7  489.42   25.93
   8  11   7  483.67   20.92
   8  11  -9   11.91    3.02
 -11   8  -9   10.70    4.45
   8  11  -9   10.31    4.04
  11  -8  -9   24.84    4.73
  11   8  -9   12.75    4.49
   8  11  -9   14.62    4.29
  11  -8   9   13.86    5.80
 -11   8   9   17.94    4.82
  -8  11   9   16.82    5.16
  11   8 -11  273.20   12.40
  -9  11   0   69.16    8.64
  11   9   0   71.62    8.05
  -9  11   0   81.84   13.76
   9  11   0   84.81    7.89
 -11   9   0   83.03    7.65
  -9  11   0   84.72    7.82
   9  11   0   75.47    7.06
  -9  11   0   80.33    9.51
 -11   9   0   71.85    9.75
  -9  11  -2 1455.00   66.81
  -9  11   2 1462.33   66.59
   9  11  -2 1315.97   47.97
  -9  11   2 1292.51   51.20
 -11   9   2 1298.69   50.96
 -11   9  -2 1276.62   72.64
 -11   9   2 1267.50   71.47
   9  11   2 1332.72   48.98
 -11   9  -2 1290.19   48.75
 -11   9   2 1341.85   48.93
  -9  11  -2 1348.09   49.17
  -9  11   2 1343.07   49.00
  11   9   2 1390.77   50.56
  -9  11   2 1297.84   52.01
  11   9  -2 1357.23   49.79
 -11   9  -2 1301.26   53.77
  -9  11  -2 1268.30   53.01
  -9  11  -4   -1.91    4.53
  11   9  -4    3.22    3.29
   9  11  -4    1.00    2.56
 -11   9  -4   -1.91    4.14
  -9  11   4    3.74    4.43
   9  11  -4    5.64    3.97
  -9  11   4   -0.82    4.77
 -11   9   4    2.36    4.43
 -11   9   4    3.67    4.14
  -9  11   4   -0.85    4.52
 -11   9  -4    2.76    5.34
 -11   9   4   -2.49    4.81
  11   9   4    2.25    3.55
 -11   9  -4    4.52    2.73
 -11   9   4    1.66    2.45
  -9  11  -4    1.15    2.49
  -9  11   4    3.93    3.07
  -9  11  -6  489.81   25.44
 -11   9   6  454.17   23.29
  -9  11   6  446.87   24.08
   9  11  -6  460.67   22.86
  11  -9  -6  431.55   22.19
  -9  11   6  457.71   19.90
 -11   9  -8  116.74   11.23
  -9  11  -8  147.53   12.04
  11  -9   8  116.92   11.76
   9 -11   8  139.15   11.23
 -11   9   8  127.82   10.71
  -9  11   8  135.46   11.31
  11   9  -8  135.84   10.52
  11  -9  -8  120.47    9.54
 -11   9 -10   50.47    6.13
  11  -9 -10   48.58    4.38
   9  11 -10   56.66    5.64
   9  11 -10   47.39    5.13
  11   9 -10   66.33    5.98
  11  -9  10   50.83    5.85
 -11   9  10   58.75    5.57
  -9  11  10   57.73    5.94
 -10  11   1  140.21   18.01
  11  10  -1  135.89   10.62
  10  11  -1  156.96   10.71
 -10  11   1  128.10   11.37
 -11  10   1  149.41   11.90
 -11  10  -1  168.78   23.25
 -11  10   1  154.52   22.36
  11  10  -1  155.52   10.43
 -11  10  -1  135.48   10.21
 -10  11  -1  150.43   10.63
  10  11  -1  146.31    9.64
  11  10   1  149.13   10.78
 -10  11   1  132.68   12.29
 -11  10  -1  136.51   12.82
  10  11   1  121.28    9.66
 -10  11  -1  148.58   13.00
 -10  11  -3  251.37   24.05
 -10  11   3  196.94   21.86
 -11  10  -3  201.57   22.03
 -11  10   3  210.91   22.29
  10  11  -3  234.75   13.52
 -10  11   3  229.64   15.73
 -11  10   3  230.66   15.56
 -11  10  -3  233.75   27.68
 -11  10  -3  267.57   14.62
 -11  10   3  261.51   14.36
 -10  11  -3  264.88   14.60
 -10  11   3  251.79   14.16
 -10  11   3  223.77   15.87
  11  10   3  257.46   15.39
  10  11   3  261.09   15.02
  11  10  -3  259.12   14.59
  11  10  -5   27.74    4.66
  10  11  -5   20.67    3.86
 -10  11   5   24.51    4.24
  10  11  -5   26.63    5.74
  11  10  -5   26.25    5.59
 -11  10   5   19.54    5.50
 -10  11   5   28.83    6.15
 -11  10  -5   20.27    4.06
 -11  10   5   19.65    3.79
 -10  11  -5   23.36    4.30
 -10  11   5   15.23    3.61
 -10  11  -7  499.94   24.63
  11 -10  -7  460.62   21.05
  11 -10   7  461.51   24.71
  10 -11   7  504.29   24.59
 -11  10   7  482.87   22.91
 -10  11   7  456.56   23.02
  11  10  -7  447.63   19.89
 -11  10  -9    7.16    3.42
  10  11  -9    3.64    2.83
  11  10  -9    6.51    2.89
  10  11  -9    8.77    3.25
 -11  10   9   11.40    3.59
 -10  11   9   11.31    3.50
  11 -10   9    9.80    3.61
 -11  11   0  149.13   11.97
 -11  11   0  143.41   18.24
 -11  11   0  145.53   10.58
  11  11   0  131.07    9.72
 -11  11   2  390.67   20.14
 -11  11  -2  344.17   28.85
 -11  11   2  289.36   27.05
  11  11  -2  338.14   17.50
 -11  11  -2  346.67   17.80
 -11  11   2  379.22   18.29
 -11  11   2  366.35   21.02
  11  11   2  340.43   18.00
  11  11  -4   54.98    6.96
 -11  11   4   40.97    6.56
  11  11  -4   49.54    5.81
 -11  11   4   49.29    5.78
 -11  11  -4   40.88    5.49
 -11  11   4   58.39    8.12
 -11  11  -6  172.69   13.08
  11  11  -6  183.06   12.14
 -11  11   6  161.49    9.12
  11 -11   6  158.00   12.85
 -11  11   6  174.62   11.99
 -11  11   6  174.07   12.65
  11  11  -6  143.69    9.26
  11  11  -8    0.45    2.64
 -11  11   8   -0.49    2.71
  11 -11   8    0.57    2.80
 -11  11   8    3.17    2.80
  11  11 -10    4.24    1.71
   0  12   0   10.07    2.96
   0  12   0   -1.26    3.61
   0  12   0   17.48    6.96
  12   0   0    7.78    3.38
   0  12   0    3.71    2.62
   0  12   0   16.20    3.56
  12   0   0    3.23    4.42
   0  12   0    7.64    3.62
   0  12   2 2959.42   99.14
   0  12  -2 2865.51   93.67
   0  12  -2 2936.66   98.29
  12   0   2 2986.77   97.82
   0  12   2 2885.68   94.68
   0  12   2 2870.80  112.19
   0  12  -2 2882.73  112.36
   0  12  -2 2857.67   98.18
   0  12  -2 2793.73   93.08
  12   0   2 2978.34  115.19
   0  12   2 2937.76   97.09
   0  12  -4  226.81   21.75
   0  12  -4  259.63   17.63
   0  12   4  218.05   12.69
   0  12   4  265.91   23.34
   0  12  -4  231.24   15.43
   0  12   4  231.46   12.93
  12   0   4  192.94   22.26
   0  12   4  222.14   15.72
   0  12  -4  234.11   27.51
   0  12   4  238.05   15.70
   0  12   4  235.37   14.29
   0  12  -6 1010.59   46.04
   0  12   6  958.08   37.08
   0  12  -6  958.58   38.12
   0  12  -6  938.25   41.16
   0  12   6  998.72   37.50
  12   0   6 1018.37   42.73
  12   0   6  991.27   57.98
   0  12   6 1081.96   43.35
   0  12  -6  947.15   66.05
 -12   0  -6  891.02   68.08
  12   0   6  912.27   42.85
   0  12   6  991.43   39.58
   0  12   8  548.44   23.62
   0  12   8  557.44   23.57
   0  12  -8  608.10   32.86
   0  12  -8  507.37   24.87
  12   0  -8  592.43   30.68
  12   0   8  571.25   28.93
   0  12   8  559.60   28.09
   0  12   8  567.49   26.50
   0  12 -10  407.73   22.25
   0  12 -10  329.12   17.55
   0  12 -10  374.41   19.73
  12   0 -10  360.35   20.81
   0  12  10  405.67   19.36
  12   0  10  369.64   20.81
   0  12  10  328.88   18.05
  12   0 -12  338.03   15.68
  -1  12   1  404.36   20.36
  -1  12  -1  401.19   20.14
   1  12  -1  408.47   17.84
   1  12   1  411.54   18.09
  -1  12  -1  407.93   17.67
   1  12   1  474.22   31.00
  -1  12   1  406.25   18.03
  -1  12   1  385.33   28.37
   1  12   1  393.87   17.73
   1  12  -1  390.78   17.30
  -1  12   1  388.82   17.83
  -1  12   1  424.08   19.50
  -1  12  -1  366.09   17.15
  -1  12  -1  413.26   18.74
  12  -1  -1  386.78   26.67
  12   1   1  402.02   29.26
  12   1  -1  430.93   28.25
 -12   1  -1  411.97   20.24
  -1  12  -1  411.88   19.20
  12   1   1  416.12   20.48
  12  -1   1  399.79   19.28
  -1  12   1  408.02   19.35
  12   1   3  961.67   39.14
  -1  12  -3  903.79   36.74
   1  12   3  922.53   49.04
   1  12  -3  967.20   49.66
  -1  12   3  923.51   48.83
  -1  12  -3  912.50   48.59
  -1  12  -3  876.64   38.35
   1  12  -3  953.50   38.20
   1  12  -3  965.90   37.23
   1  12   3  954.05   35.03
  -1  12  -3  903.17   33.12
  -1  12   3  934.58   35.04
  12   1   3  870.48   51.16
  -1  12   3  939.72   39.84
   1  12   3  894.45   38.46
  -1  12   3  937.40   37.69
  -1  12  -5   90.86   13.62
   1  12   5   99.01    8.23
  -1  12  -5   98.92   12.11
  -1  12   5  113.52   14.97
  -1  12   5   92.45    7.98
  -1  12  -5  104.28   10.67
   1  12  -5  109.81   10.98
   1  12  -5  104.48    9.99
  -1  12   5  103.45    8.41
   1  12   5  101.35    8.42
 -12   1   5  104.35   15.63
  12  -1   5  101.68   10.74
  12   1   5  105.65   10.48
  -1  12   5  131.46   12.28
   1  12   5  102.03   10.63
  12  -1   5   89.27   15.71
  12   1   5   96.47   16.44
   1  12  -5  106.95   21.47
  12   1   5  118.64   12.99
  12  -1   5  111.86   11.07
  -1  12   5  103.38    9.76
   1  12   5  103.20    9.31
   1  12   7 1139.60   41.72
   1  12   7 1116.84   41.35
  -1  12  -7 1198.67   51.74
  -1  12   7 1122.52   41.44
  -1  12  -7 1086.20   42.32
   1  12  -7 1093.36   43.58
   1  12  -7 1127.19   45.97
  -1  12   7 1140.27   41.70
  12   1  -7 1143.86   47.67
 -12  -1   7 1026.05   59.52
  12  -1   7 1100.28   47.57
  12   1   7 1134.12   46.76
  12  -1   7 1139.43   63.39
  12   1   7 1138.17   63.33
  -1  12   7 1209.78   48.55
   1  12   7 1127.83   46.09
   1  12  -7 1041.22   71.89
 -12  -1  -7 1028.98   74.92
 -12   1  -7 1017.77   74.07
   1  12   7 1118.12   43.93
 -12   1  -7 1067.71   70.86
  -1  12   7 1117.38   44.70
  12   1   7 1018.36   47.62
  -1  12  -9    3.56    3.19
   1  12  -9    2.00    3.52
   1  12   9    5.02    2.53
  -1  12  -9    1.11    6.51
  -1  12   9    6.06    2.81
  -1  12  -9    2.46    4.68
   1  12  -9    3.20    5.00
  12   1  -9    0.90    4.94
  12  -1   9   -2.00    5.11
  12   1   9    3.57    4.56
  -1  12   9    6.80    4.72
   1  12   9    3.61    4.30
   1  12   9    2.01    3.99
  -1  12   9    2.18    4.15
  -1  12 -11  745.53   28.49
  -1  12 -11  516.49   23.83
   1  12 -11  595.30   24.89
   1  12 -11  626.93   26.43
  12   1 -11  662.66   27.02
  -1  12  11  629.62   25.45
  12   1  11  655.71   27.62
  -1  12  11  652.84   25.96
   1  12  11  638.95   25.45
  -2  12   0  299.83   16.82
   2  12   0  314.39   17.21
   2  12   0  323.93   15.36
   2  12   0  323.11   26.17
  -2  12   0  309.04   25.42
   2  12   0  319.81   14.91
  -2  12   0  309.29   15.01
  -2  12   0  331.67   16.75
  12   2   0  371.00   26.78
 -12   2   0  331.92   17.94
  12  -2   0  322.78   16.17
  12   2   0  310.78   17.22
  -2  12   0  321.12   16.30
  -2  12   0  295.56   15.87
   2  12   0  328.62   16.66
  -2  12   2  492.82   25.04
   2  12   2  552.59   26.11
  -2  12  -2  560.94   25.70
   2  12  -2  569.20   25.96
   2  12   2  562.35   23.10
  12   2   2  578.55   26.38
  12  -2   2  521.84   23.39
   2  12   2  481.17   33.58
   2  12  -2  476.23   33.56
   2  12  -2  545.56   22.42
  -2  12  -2  512.52   34.26
  -2  12   2  555.24   35.20
   2  12  -2  511.84   24.46
   2  12  -2  559.88   24.08
   2  12   2  549.83   22.71
  -2  12  -2  557.46   22.08
   2  12  -2  544.66   21.46
  -2  12   2  521.57   24.54
  12   2   2  541.51   36.60
  -2  12  -2  557.52   23.94
  -2  12   2  566.05   24.07
 -12   2  -2  553.06   25.88
  -2  12   2  546.29   24.40
   2  12   2  587.82   25.12
   2  12   4  130.87    9.37
  -2  12  -4  139.50   11.28
  -2  12   4  159.96   18.08
  -2  12  -4  171.57   18.43
  -2  12  -4  125.82   11.74
   2  12  -4  113.22   10.59
 -12   2   4  150.91   17.22
   2  12  -4  132.33   10.57
   2  12   4  128.29    9.27
  -2  12   4  127.75    9.39
  12   2   4  141.39   11.33
  -2  12   4  128.99   12.66
   2  12   4  159.38   12.39
   2  12  -4  125.83   20.97
  -2  12  -4  136.10   21.18
 -12   2  -4  135.87   23.27
  -2  12   4  139.15   11.63
   2  12   4  122.70   11.23
   2  12   6  174.22   11.05
  -2  12  -6  202.03   16.69
   2  12  -6  216.71   17.35
  -2  12  -6  175.06   13.94
   2  12  -6  162.28   12.40
  -2  12   6  159.30   10.76
  -2  12  -6  162.98   13.92
   2  12  -6  202.71   14.47
   2  12  -6  170.54   12.78
   2  12   6  177.52   11.13
  -2  12   6  175.16   11.45
 -12   2   6  165.85   19.88
  12   2  -6  168.58   13.69
  12  -2   6  182.87   15.16
  12   2   6  171.28   13.54
  12   2   6  175.74   22.46
  -2  12   6  180.73   15.21
   2  12   6  179.57   13.62
   2  12  -6  167.85   26.70
  -2  12  -6  154.64   26.39
  12   2   6  178.37   16.27
 -12   2  -6  166.21   24.19
   2  12   6  172.66   12.09
  -2  12   6  159.41   12.88
  -2  12  -8    7.51    3.54
   2  12  -8    8.20    4.50
  -2  12   8   12.41    3.78
   2  12   8    4.78    3.14
  -2  12  -8    2.40    6.95
   2  12  -8   18.14    8.43
  -2  12  -8    4.45    4.94
   2  12  -8    9.97    5.62
  12   2  -8    4.40    5.24
  -2  12   8    4.01    3.22
   2  12   8    5.97    4.27
  12   2   8    8.95    4.82
  -2  12   8    4.02    5.66
   2  12   8    6.09    4.09
  -2  12   8    6.46    5.18
  -2  12 -10   10.59    3.53
   2  12 -10   15.37    4.48
   2  12 -10    8.32    5.64
  -2  12 -10   19.42    6.31
  -2  12 -10   19.34    4.73
  12   2 -10    9.30    4.51
   2  12 -10   11.63    4.69
  12  -2 -10    8.16    7.25
  12   2 -10   12.98    4.77
  12   2  10   12.47    4.61
  -2  12  10   19.06    5.07
   2  12  10    7.59    3.90
  -2  12  10   12.08    4.45
  12   2 -12   16.69    3.18
  12  -2 -12   17.62    3.86
   2  12 -12   16.77    3.26
  -3  12   1  230.69   22.12
  -3  12   1  257.90   15.23
   3  12   1  273.52   15.76
   3  12   1  275.95   13.85
  -3  12  -1  251.77   15.11
   3  12  -1  274.16   15.57
   3  12   1  236.32   22.16
   3  12  -1  271.31   13.57
   3  12  -1  244.12   12.48
 -12   3   1  268.56   19.94
  -3  12   1  251.24   13.33
   3  12   1  258.79   13.20
  -3  12   1  263.03   15.21
  -3  12  -1  252.81   14.71
  12   3   1  249.38   23.34
  12   3  -1  249.49   21.44
  12   3   1  271.58   15.96
  -3  12  -1  255.57   14.26
 -12   3  -1  286.42   16.95
  -3  12   1  248.92   14.57
  -3  12   1  270.85   14.57
   3  12   1  263.54   14.63
   3  12   3  129.55    9.33
  -3  12  -3  116.44   15.20
  12   3   3  136.49   12.11
  -3  12  -3  144.17   10.98
  -3  12   3  134.21   16.42
 -12   3   3  133.38   15.66
   3  12  -3  102.67    9.74
   3  12  -3  120.00    9.71
  -3  12   3  131.04    9.13
  -3  12   3  126.51   10.75
  12   3   3  116.82    9.66
  12   3   3  119.10   17.36
 -12   3  -3   95.85   19.91
  -3  12  -3  128.03    9.48
  -3  12   3  135.41    9.64
 -12   3  -3  138.50   12.17
  -3  12   3  148.48   10.91
   3  12   3  161.29   11.43
   3  12   5  800.60   32.91
  -3  12  -5  925.66   39.91
   3  12  -5  875.46   39.37
  -3  12  -5  892.76   37.34
  -3  12   5  833.37   46.61
  -3  12  -5  791.72   46.29
   3  12  -5  855.64   35.38
  -3  12  -5  873.47   38.21
   3  12  -5  889.47   36.83
   3  12  -5  881.94   35.95
   3  12   5  842.40   33.15
 -12   3   5  887.33   48.43
  -3  12   5  841.72   33.47
  12   3   5  836.24   35.72
  12   3   5  972.39   54.74
   3  12   5  856.31   35.64
   3  12  -5  905.44   58.11
  -3  12  -5  793.12   55.80
  -3  12   5  865.78   36.56
  12   3   5  849.22   39.30
 -12   3  -5  823.34   61.92
  -3  12   5  858.27   36.91
   3  12   5  872.48   37.13
 -12   3   5  822.54   32.96
   3  12  -7   18.81    5.69
   3  12   7   21.26    4.43
  -3  12  -7   18.23    7.64
   3  12  -7   25.46    8.08
  -3  12   7   15.23    4.03
  -3  12  -7   20.73    6.13
 -12   3   7   13.01    6.97
  -3  12  -7   19.50    6.24
   3  12  -7   12.41    5.32
  12   3  -7   13.82    5.46
   3  12  -7   16.40    5.30
  -3  12   7   20.64    4.34
  12  -3  -7   29.60   10.71
 -12  -3   7    4.89    5.81
   3  12   7   16.29    4.91
  12   3   7   18.55    5.37
  12  -3   7   20.10    8.07
  12   3   7    9.94    7.22
  -3  12   7   19.08    7.04
   3  12  -7   17.28   11.58
  -3  12  -7   17.44   10.67
   3  12   7   10.70    4.02
  -3  12   7   12.61    5.59
 -12  -3  -7   22.62   14.51
  12   3   7   16.09    7.76
  -3  12  -9  999.64   39.77
   3  12  -9  963.75   39.69
  -3  12   9  832.32   31.53
 -12   3  -9 1015.10   43.44
   3  12   9  858.29   31.30
  -3  12  -9  730.81   31.91
   3  12  -9  835.06   35.11
  -3  12  -9  825.52   36.27
  12   3  -9  850.58   35.16
  12  -3  -9  830.72   41.51
  12   3  -9  905.60   38.02
  12  -3   9  777.04   38.63
  -3  12   9  873.35   37.58
  12   3   9  857.04   36.24
   3  12   9  797.65   33.39
  -3  12   9  844.47   35.68
   3  12 -11    0.44    2.47
  12   3 -11    3.79    3.04
  12  -3 -11    1.43    4.44
   3  12 -11    1.54    2.98
  -3  12  11   -2.01    3.22
  12   3  11   -1.03    2.68
  12  -3  11    7.30    4.23
   3  12  11    1.88    2.44
  -3  12  11    0.41    2.78
   3  12  11   -1.65    2.46
  -4  12   0 1864.69   81.74
  -4  12   0 1895.46   66.93
   4  12   0 1821.85   66.73
   4  12   0 1902.49   64.87
   4  12   0 1916.11   64.00
  -4  12   0 1973.34   67.52
 -12   4   0 1879.58   86.94
  12   4   0 2143.31   83.94
 -12   4   0 1857.84   68.90
  -4  12   0 1891.31   66.18
  -4  12   0 1926.18   67.93
  12   4   0 1885.11   67.81
  -4  12  -2  113.04    9.94
   4  12  -2  119.03   10.18
  -4  12  -2   99.37   14.41
  -4  12   2   98.13   14.17
  12   4   2  106.33   10.31
   4  12  -2  118.91    8.45
  -4  12  -2  126.07    9.88
   4  12  -2  119.43    7.66
 -12   4   2  105.61   12.79
   4  12  -2  104.67    8.82
  -4  12   2  138.87   10.86
   4  12   2  119.88    8.53
  12   4   2  107.53   15.88
  -4  12   2  123.72   11.57
  -4  12  -2  126.30    9.40
  -4  12   2  129.12    9.33
  -4  12   2  107.01    9.47
 -12   4  -2  100.49   18.74
  -4  12   2  113.80    9.38
   4  12   2  133.44    9.85
 -12   4  -2  116.36   11.83
   4  12   4 1901.55   65.01
  -4  12  -4 1936.94   68.53
  -4  12  -4 1930.12   81.72
  -4  12   4 1855.36   80.76
   4  12  -4 1848.76   67.30
 -12   4   4 1867.37   79.52
   4  12  -4 1846.81   66.68
  -4  12   4 1892.76   65.01
   4  12   4 1832.83   64.40
  12   4   4 1861.52   66.02
  -4  12   4 1854.34   70.60
  12   4   4 1856.62   70.04
 -12   4  -4 1763.91   96.11
  -4  12   4 1898.89   66.69
  -4  12  -4 1846.80   65.35
  -4  12   4 1898.68   65.52
  -4  12   4 1989.51   67.63
   4  12   4 1920.89   67.36
 -12   4   4 1858.26   64.96
  -4  12  -6  183.77   15.03
   4  12  -6  202.05   15.76
  -4  12  -6  149.29   13.14
   4  12   6  175.36   11.10
   4  12  -6  152.05   12.54
   4  12   6  171.26   10.93
 -12   4   6  176.76   20.45
   4  12  -6  175.43   13.37
   4  12  -6  202.72   13.67
  -4  12   6  166.50   11.05
  12   4  -6  146.52   12.05
  12   4   6  166.56   12.63
  12   4   6  145.57   20.74
   4  12  -6  176.29   24.93
  -4  12  -6  184.82   25.20
 -12   4  -6  145.02   25.64
  12   4   6  190.78   16.00
   4  12   6  173.05   13.38
  -4  12  -8  974.75   40.16
   4  12  -8  985.83   40.66
   4  12   8  854.99   32.79
  -4  12   8  885.00   33.32
   4  12  -8  869.61   36.84
   4  12  -8  878.55   37.03
  12   4  -8  852.63   35.71
  -4  12   8  884.41   33.39
  12  -4  -8  851.22   43.24
  12  -4   8  891.15   41.84
  12   4   8  860.73   36.62
  -4  12   8  851.19   37.24
   4  12   8  794.41   33.84
  -4  12  10  281.89   12.25
   4  12 -10  292.12   16.10
 -12   4 -10  303.08   18.56
   4  12 -10  273.60   15.00
  12   4 -10  247.78   13.90
  12  -4 -10  269.25   18.09
  12   4 -10  291.60   16.08
  12   4  10  262.47   15.15
  12  -4  10  291.47   18.80
  -4  12  10  262.19   15.83
  -4  12  10  243.67   14.13
   4  12  10  271.71   14.64
   4  12  10  241.96   13.37
   4  12 -12  166.31    8.82
  12  -4 -12  186.43    9.50
   4  12 -12  167.36    7.82
   5  12  -1  622.23   24.46
  -5  12   1  631.11   27.22
   5  12   1  608.53   27.28
  -5  12   1  610.80   38.51
  -5  12  -1  640.18   27.29
   5  12  -1  661.82   27.66
  12   5   1  616.24   28.34
   5  12   1  634.66   25.31
   5  12  -1  607.35   25.59
   5  12   1  628.86   25.90
  -5  12   1  637.66   28.38
  12   5   1  652.68   40.48
  12   5  -1  682.67   29.12
  -5  12  -1  601.72   26.54
 -12   5  -1  608.00   43.77
 -12   5  -1  653.91   30.25
  -5  12   1  633.40   28.46
  -5  12  -1  649.72   29.32
  -5  12   1  582.01   25.84
   5  12   1  632.00   26.44
  -5  12  -3  162.25   18.39
  -5  12   3  147.65   17.79
  -5  12  -3  156.21   11.87
   5  12  -3  164.39   12.12
  -5  12  -3  182.23   12.72
   5  12   3  171.38   10.77
   5  12  -3  153.64   11.40
 -12   5   3  153.29   16.27
   5  12  -3  159.30   11.36
  -5  12   3  168.11   10.75
  -5  12   3  151.04   12.32
  -5  12   3  152.24   13.27
  12   5   3  139.28   19.18
  -5  12   3  140.11   11.48
  -5  12  -3  173.12   11.15
  -5  12   3  160.77   10.78
 -12   5  -3  171.55   24.42
 -12   5  -3  170.97   14.77
  -5  12   3  181.30   11.78
   5  12   3  173.51   11.68
 -12   5  -3  157.94   10.66
 -12   5   3  151.74   10.50
  -5  12  -5 1325.44   52.76
   5  12   5 1337.09   48.45
   5  12   5 1379.88   48.98
  -5  12  -5 1281.52   62.68
 -12   5   5 1391.91   64.61
   5  12  -5 1285.32   51.11
  -5  12   5 1364.86   48.79
   5  12  -5 1333.66   50.98
  12   5  -5 1384.99   50.42
 -12   5   5 1240.33   67.70
 -12   5  -5 1280.76   70.38
  12   5   5 1380.35   70.53
  -5  12   5 1360.70   54.68
  12   5   5 1285.00   49.53
 -12   5  -5 1344.67   48.56
 -12   5   5 1353.53   48.45
  -5  12  -5 1343.48   48.91
  -5  12   5 1374.51   49.03
  12   5   5 1421.39   54.66
 -12   5  -5 1238.57   78.58
  -5  12   5 1368.96   50.76
   5  12   5 1386.96   51.02
   5  12  -7   15.38    5.32
   5  12  -7   18.57    6.42
   5  12   7   12.28    3.67
  -5  12  -7    6.51    4.34
   5  12  -7    6.98    4.46
  -5  12   7   15.03    3.93
  12   5  -7   22.76    5.01
   5  12  -7   16.49    4.88
  12  -5  -7   14.78    7.25
  12  -5   7   19.79    7.28
  12   5   7   16.86    4.63
  -5  12   7   22.52    6.65
  -5  12   7   19.71    5.62
   5  12   7   20.70    5.87
 -12   5  -9  985.55   42.66
  -5  12   9  976.77   34.34
   5  12  -9  950.24   37.95
   5  12  -9  953.29   38.08
  12   5  -9  951.59   35.98
   5  12  -9  946.81   37.92
  12   5  -9 1021.86   39.43
  12  -5  -9  921.03   41.09
  12   5   9  926.96   37.14
  12  -5   9 1022.71   43.90
 -12   5   9  884.19   37.08
  -5  12   9  936.62   36.63
   5  12   9  968.80   36.90
   5  12   9  848.75   34.58
  -5  12 -11   23.61    3.26
  12  -5 -11   22.56    4.49
  12   5 -11   24.64    3.55
  -5  12  11   25.88    4.18
  12  -5  11   25.68    4.97
  -6  12   0  881.49   36.32
  -6  12   0  877.29   34.58
   6  12   0  834.31   34.51
  -6  12   0  865.83   48.81
   6  12   0  904.05   34.08
   6  12   0  851.89   32.50
  -6  12   0  890.80   34.93
 -12   6   0  900.84   38.47
  -6  12   0  902.66   37.53
 -12   6   0  866.63   34.63
  -6  12  -2  220.35   21.66
  -6  12   2  196.14   20.59
  -6  12  -2  188.74   12.40
   6  12  -2  187.48   12.45
  12   6   2  182.46   13.72
   6  12   2  190.86   11.34
   6  12  -2  200.44   12.48
  -6  12   2  182.77   13.35
 -12   6   2  188.08   13.00
  12   6   2  185.57   21.53
 -12   6   2  190.51   24.10
 -12   6  -2  214.14   25.46
 -12   6  -2  186.63   12.01
 -12   6   2  195.08   12.23
 -12   6  -2  194.42   24.86
  -6  12  -2  183.61   12.11
  -6  12   2  206.03   12.49
  -6  12   2  181.82   13.43
 -12   6  -2  226.45   16.09
  -6  12   2  220.36   12.44
   6  12   2  195.16   12.03
  -6  12  -4  393.96   30.22
  -6  12   4  430.35   31.30
  -6  12  -4  399.55   20.51
   6  12  -4  430.80   21.43
  -6  12  -4  436.96   22.81
   6  12   4  444.24   20.08
   6  12  -4  405.84   20.81
  -6  12   4  415.25   19.48
 -12   6   4  407.12   20.86
 -12   6   4  362.29   27.89
   6  12  -4  404.25   20.79
 -12   6   4  433.78   35.94
 -12   6  -4  413.67   36.41
  12   6   4  436.50   34.80
  -6  12   4  398.53   23.41
 -12   6  -4  428.07   20.01
 -12   6   4  407.77   19.55
  -6  12   4  444.17   22.15
  12   6   4  430.10   22.85
 -12   6  -4  398.19   39.33
  -6  12  -4  415.50   19.84
  -6  12   4  434.03   20.14
  -6  12   4  426.63   20.19
   6  12   4  430.87   20.28
   6  12   6    4.15    2.97
  -6  12  -6    1.82    4.23
   6  12  -6    2.25    3.70
   6  12  -6    2.91    3.98
  -6  12   6    6.61    3.18
  12   6   6    2.36    5.11
  -6  12   6    4.91    5.93
  12   6   6    1.91    4.80
  -6  12   6    1.87    3.41
   6  12   6   -0.63    3.73
 -12   6  -8   76.11    9.91
  -6  12  -8   73.12    9.09
   6  12  -8   71.56    8.31
  12   6  -8   67.62    6.76
  12  -6  -8   72.18    9.63
  12   6  -8   61.25    8.23
  12  -6   8   92.36   11.96
  12   6   8   69.83    7.34
 -12   6   8   66.30    8.24
  -6  12   8   77.51    9.82
  -6  12   8   70.56    7.38
   6  12   8   84.53    8.01
  -6  12 -10   15.40    3.26
 -12   6 -10   14.06    4.73
  -6  12  10   15.64    2.57
  12  -6 -10   19.71    4.71
   6  12 -10   14.69    4.12
  12   6 -10   22.05    4.65
  12  -6  10   14.55    4.96
  12   6  10   22.35    3.74
  -6  12  10   20.13    4.74
  -6  12  10   12.44    2.85
   6  12  10   16.08    3.10
  -7  12  -1  141.07    9.81
   7  12  -1  136.51    9.89
  -7  12   1  103.17   15.31
   7  12   1  112.26    8.98
 -12   7   1  113.40   10.29
 -12   7   1  139.79   20.96
 -12   7  -1   97.54   17.93
 -12   7  -1  124.22    9.65
 -12   7   1  153.21   13.08
  -7  12  -1  120.96    9.60
  12   7  -1  116.02   10.12
  -7  12   1  127.07   11.36
 -12   7  -1  133.37   12.42
  -7  12  -1  110.64   11.26
  -7  12  -3  487.95   33.35
  -7  12   3  466.86   32.77
  -7  12  -3  425.87   20.30
   7  12  -3  411.38   20.42
   7  12   3  439.64   20.52
   7  12  -3  448.01   21.58
  -7  12   3  474.46   23.72
 -12   7   3  466.22   22.56
 -12   7   3  439.74   37.23
 -12   7  -3  418.50   37.55
  -7  12   3  439.17   24.01
 -12   7  -3  455.25   20.91
 -12   7   3  438.85   20.64
  -7  12   3  445.94   22.91
  -7  12  -3  441.95   20.89
  -7  12   3  447.26   20.85
  -7  12   3  422.28   19.70
   7  12   3  419.59   19.72
  12   7  -3  450.39   22.52
   7  12   5    4.36    3.61
  -7  12  -5    1.16    3.45
   7  12  -5    0.62    3.51
  -7  12  -5    3.57    3.86
  -7  12  -5    5.29    4.51
   7  12  -5    2.09    3.44
   7  12  -5    2.11    3.85
  -7  12   5    6.15    3.10
  -7  12   5    1.86    5.53
 -12   7  -5    2.61    4.37
  12   7   5   -0.85    3.96
 -12   7  -5    1.58    2.84
 -12   7   5    7.20    3.07
  -7  12  -5    6.99    2.98
  -7  12   5    0.53    2.40
  -7  12   5    7.36    3.25
   7  12   5    5.30    3.24
  -7  12  -7  538.68   23.75
  -7  12  -7  531.85   27.09
   7  12  -7  529.26   25.17
   7  12  -7  557.85   25.61
  -7  12   7  540.39   22.53
  12  -7  -7  525.23   26.80
  12  -7   7  598.13   31.26
 -12   7   7  546.89   25.55
  -7  12   7  521.47   27.16
  -7  12   7  557.08   23.36
   7  12   7  518.02   23.08
 -12   7  -9   10.36    4.43
  -7  12  -9    7.96    2.94
   7  12  -9    9.37    3.16
  -7  12   9    6.64    2.60
   7  12  -9    9.18    3.77
  12  -7  -9   12.01    4.58
   7  12  -9   11.88    4.17
  12   7  -9   12.50    4.08
  12  -7   9    0.91    4.39
 -12   7   9    9.08    3.73
  -7  12   9   11.66    4.83
  -7  12   9    8.61    2.87
  -7  12   9    8.64    2.79
   7  12   9   10.64    2.71
   7  12 -11  299.07   12.98
  12  -7 -11  279.87   11.72
  12   7 -11  259.95   11.57
  12   8   0   14.17    5.05
  -8  12   0   22.58    7.95
 -12   8   0   16.80    4.36
  -8  12   0   13.01    3.86
 -12   8   0   14.02    6.27
  -8  12   0   11.29    5.12
   8  12  -2 1792.51   63.97
  -8  12  -2 1974.69   83.86
  -8  12   2 1943.67   83.61
   8  12  -2 1846.74   63.56
   8  12  -2 1881.29   65.69
  -8  12   2 1841.82   67.88
 -12   8   2 1921.92   67.56
 -12   8   2 1812.01   90.92
 -12   8  -2 2066.50   94.82
 -12   8  -2 1853.75   65.69
 -12   8   2 1874.51   65.76
  12   8  -2 1906.22   67.20
  12   8   2 1948.44   67.96
 -12   8   2 1981.57   71.16
  -8  12  -2 1890.98   65.94
  -8  12   2 1833.99   65.62
  -8  12   2 1887.58   68.77
 -12   8  -2 1772.60   70.29
  -8  12   4   85.31   13.42
   8  12  -4   64.87    6.91
  -8  12  -4   75.76   12.68
   8  12   4   94.96    8.26
  -8  12  -4   86.01    9.80
  -8  12   4   98.86    9.93
   8  12  -4   76.55    7.84
   8  12  -4   76.81    8.10
 -12   8   4   93.11    9.34
 -12   8  -4   66.25   14.59
 -12   8   4   85.58   15.41
  -8  12   4  100.10   10.69
  12   8  -4   86.69    8.67
 -12   8  -4   92.55    8.12
 -12   8   4   81.64    7.47
  -8  12   4   98.78   10.07
  -8  12  -4  100.35    8.37
  -8  12   4   89.16    7.94
  12   8   4   86.54    9.42
   8  12   4   82.89    7.01
   8  12  -6  796.62   32.13
  -8  12  -6  907.85   37.78
   8  12  -6  849.35   34.52
   8  12  -6  846.03   34.89
  12  -8  -6  775.13   35.14
  -8  12   6  875.01   32.21
   8 -12   6  877.88   36.80
 -12   8   6  860.52   34.67
  -8  12   6  844.28   36.97
   8  12   6  798.76   31.20
   8  12  -8  279.66   13.41
 -12   8  -8  288.60   17.65
  -8  12  -8  300.33   17.58
  12  -8   8  290.19   18.72
 -12   8   8  291.46   15.66
  -8  12   8  282.13   16.83
   8  12  -8  281.11   15.62
  12  -8  -8  275.17   15.61
  12   8  -8  292.08   16.27
  -8  12  10  177.91    8.11
 -12   8 -10  192.99   11.69
   8  12 -10  210.61   11.03
  12  -8 -10  189.90    9.84
  12   8 -10  209.08   10.73
  12  -8  10  206.89   12.02
  -8  12  10  192.11   11.00
  -9  12   1  453.22   34.13
  12   9  -1  522.72   23.55
  12   9   1  504.86   23.75
   9  12  -1  435.39   20.87
  -9  12   1  475.49   23.86
 -12   9   1  474.27   23.57
 -12   9   1  479.67   40.50
 -12   9  -1  438.27   39.71
 -12   9  -1  459.52   22.10
  12   9   1  516.92   23.54
  -9  12  -1  498.08   22.57
 -12   9   1  490.92   25.89
  -9  12   1  462.41   24.76
 -12   9  -1  514.99   26.53
  -9  12  -1  428.42   24.47
   9  12   1  439.90   20.85
  -9  12  -3  527.34   36.58
  -9  12   3  471.39   35.19
   9  12  -3  549.10   23.25
   9  12  -3  578.81   25.74
  -9  12   3  570.02   27.17
 -12   9   3  585.37   26.63
 -12   9  -3  547.11   43.51
 -12   9   3  530.12   42.18
 -12   9  -3  590.64   25.11
 -12   9   3  573.09   24.84
 -12   9   3  545.32   28.31
  12   9  -3  588.87   25.87
  -9  12  -3  585.15   25.25
  -9  12   3  564.69   24.90
  -9  12   3  603.28   27.96
  12   9   3  568.43   26.52
  -9  12  -5  145.28   12.56
   9  12  -5  146.09   10.82
   9  12  -5  162.73   11.68
  -9  12   5  160.11    9.98
 -12   9   5  140.70   10.93
  -9  12   5  156.01   12.43
 -12   9  -5  152.33   10.02
 -12   9   5  144.44    9.81
  -9  12   5  170.85   12.67
  -9  12  -5  161.21   10.45
  -9  12   5  143.98    9.89
  12   9  -5  158.00   11.16
  12   9   5  175.44   12.64
 -12   9  -7 1060.22   42.97
  -9  12  -7 1091.66   42.78
   9  12  -7 1003.21   39.38
   9  12  -7 1070.36   40.51
  -9  12   7 1021.64   36.37
  12   9  -7 1059.64   41.07
  12  -9  -7  958.59   39.12
  12  -9   7  964.01   42.94
   9 -12   7 1059.30   41.13
 -12   9   7 1022.39   39.57
  -9  12   7 1013.26   41.29
  12   9  -7 1105.01   39.00
  -9  12   7 1098.27   41.04
  -9  12   9    5.83    2.05
 -12   9  -9    6.45    3.40
  12   9  -9    5.48    3.21
  12  -9  -9    2.03    2.48
   9  12  -9    6.08    2.79
   9  12  -9    4.03    2.84
 -12   9   9    3.76    2.74
  -9  12   9    1.48    2.74
  12  -9   9    4.10    3.30
  -9  12   9    5.09    2.31
 -10  12   0   47.00    7.08
 -12  10   0   39.56    6.63
 -10  12   0   39.37   10.10
  12  10   0   38.93    5.96
 -12  10   0   54.87    6.45
  12  10   0   53.22    6.36
  10  12   0   38.01    4.91
 -10  12   0   42.69    6.01
 -12  10   0   63.47    9.43
 -10  12   0   41.51    7.57
 -10  12  -2  484.55   35.29
 -10  12   2  479.73   35.07
  12  10  -2  547.82   24.06
  10  12  -2  516.54   22.36
 -10  12   2  528.82   25.33
 -12  10   2  548.14   25.29
  10  12  -2  510.41   23.10
 -12  10  -2  394.01   37.63
 -12  10   2  451.15   39.30
  12  10  -2  513.23   22.71
 -12  10  -2  504.49   23.28
 -12  10   2  514.09   23.28
 -10  12  -2  528.56   23.65
 -10  12   2  533.25   23.67
 -10  12   2  545.58   26.45
  12  10   2  553.73   24.62
 -12  10  -2  482.00   26.56
  10  12   2  507.85   22.99
  10  12  -4    6.92    3.94
  12  10  -4    7.90    3.58
  10  12  -4    6.03    2.25
 -12  10  -4    7.43    3.12
 -12  10   4    7.27    2.85
 -10  12  -4    3.22    2.49
 -10  12   4    7.82    3.15
 -10  12   4    8.52    4.17
  12  10   4    7.61    4.13
 -12  10  -6  319.45   18.98
 -10  12  -6  336.78   18.80
  10  12  -6  319.20   16.13
  10  12  -6  300.87   16.61
  12  10  -6  329.91   17.66
 -10  12   6  311.14   14.29
  12 -10  -6  340.65   16.68
  12 -10   6  310.12   18.91
  10 -12   6  322.66   18.37
 -10  12   6  345.18   18.21
 -12  10   6  278.22   15.86
  12  10  -6  302.25   15.31
 -10  12   6  326.48   17.69
 -12  10  -8    0.63    3.53
 -10  12  -8    4.24    3.10
  10  12  -8    5.20    2.62
  12 -10  -8    7.98    2.77
  12  10  -8    6.48    3.44
 -10  12   8    7.73    3.38
 -12  10   8    5.02    2.71
  12 -10   8    4.97    3.34
 -10  12   8    3.24    2.41
  10  12 -10   67.28    4.49
  12  10 -10   71.21    4.88
 -11  12  -1   61.36    7.44
  11  12  -1   43.10    5.37
 -12  11  -1   53.09    7.40
 -11  12   1   45.27    6.76
 -12  11   1   64.80    7.78
  12  11  -1   53.80    6.46
 -11  12  -1   56.61    8.71
 -12  11  -1   66.09    6.88
 -11  12  -1   70.29    7.12
  12  11  -1   54.38    5.87
  12  11   1   58.56    6.57
  11  12   1   50.63    5.87
 -11  12   1   62.84    8.80
  11  12  -3    4.02    2.88
  12  11  -3    1.21    2.93
 -11  12   3    6.18    4.04
 -12  11   3    7.32    4.07
  12  11  -3    8.41    3.45
  11  12  -3    1.40    2.54
 -12  11  -3    3.77    2.90
 -12  11   3    4.80    2.96
 -11  12  -3    2.71    2.78
 -11  12   3    1.07    2.73
 -12  11   3    6.48    4.36
 -11  12   3    4.69    3.78
  12  11   3    0.62    2.86
 -12  11   5  260.21   12.53
  12  11  -5  259.59   14.93
 -11  12   5  261.05   12.68
  12 -11  -5  248.48   13.78
  11  12  -5  235.79   14.13
  12  11  -5  262.89   13.27
 -11  12  -5  292.65   16.80
 -12  11   5  284.66   16.34
 -12  11  -5  263.82   13.27
 -12  11   5  234.66   12.70
 -11  12   5  280.66   16.10
 -11  12  -5  274.58   13.43
 -11  12   5  263.60   13.16
 -12  11  -7  105.53    9.25
 -11  12  -7  104.93    9.15
  11  12  -7   94.73    7.18
  12  11  -7   87.86    7.08
  12  11  -7  118.48    8.71
  11  12  -7  107.93    8.22
  12 -11   7   85.06    8.47
  11 -12   7  104.52    8.68
 -12  11   7  117.20    9.07
 -11  12   7   95.07    8.19
  11  12  -9  218.94   10.37
  12  11  -9  222.03   10.45
 -11  12   9  254.98    9.69
 -12  11   9  246.99    9.57
 -12  12   0 1149.43   44.39
 -12  12   0 1182.53   43.28
  12  12   0 1128.12   41.36
 -12  12  -2    5.03    3.55
  12  12  -2    6.40    3.26
 -12  12   2    5.18    3.54
 -12  12  -2    5.87    2.92
 -12  12   2    5.30    2.85
 -12  12   2    2.33    3.91
  12  12   2    3.63    2.56
  12  12  -4  708.85   28.31
  12  12  -4  675.85   26.42
 -12  12  -4  669.94   29.94
 -12  12  -4  695.69   27.32
 -12  12   4  704.13   27.28
 -12  12   4  715.45   30.32
 -12  12  -6   72.11    7.51
  12  12  -6   81.03    7.02
 -12  12   6   75.02    5.02
  12 -12   6   73.56    7.65
 -12  12   6   69.48    7.18
  12  12  -8  234.08   11.24
 -12  12  -8  226.37   11.95
   0  13   1  827.42   34.04
   0  13  -1  805.33   33.59
   0  13  -1  800.70   30.88
   0  13   1  822.01   31.34
   0  13   1  896.38   47.93
   0  13   1  794.43   31.06
   0  13  -1  807.83   30.65
  13   0   1  803.42   45.97
  13   0  -1  786.41   42.82
  13   0   1  826.40   33.38
   0  13   1  790.29   32.51
   0  13  -3  731.54   32.40
   0  13   3  745.96   43.91
   0  13  -3  703.21   43.12
   0  13  -3  766.52   32.89
   0  13  -3  721.25   27.42
   0  13   3  727.63   29.38
  13   0   3  756.75   46.96
   0  13   3  763.12   31.71
   0  13   5  394.40   18.73
   0  13  -5  416.99   30.75
   0  13  -5  395.32   21.96
 -13   0   5  337.93   30.04
   0  13   5  394.14   18.94
  13   0   5  388.10   21.92
   0  13   5  371.44   21.66
   0  13   5  377.60   19.69
  13   0   5  418.10   23.41
   0  13   5  399.54   21.54
   0  13   7 1121.35   41.86
   0  13  -7 1272.14   49.80
   0  13  -7 1128.00   46.40
   0  13   7 1145.17   42.11
  13   0  -7 1124.11   47.78
  13   0   7 1122.78   47.04
   0  13   7 1112.83   45.92
   0  13   7 1114.50   44.21
   0  13   9   56.72    5.45
   0  13  -9   47.18    5.86
   0  13  -9   71.81    9.05
  13   0  -9   56.85    8.57
   0  13   9   52.58    6.95
  13   0   9   73.12    8.83
   0  13   9   54.74    6.92
   0  13   9   65.30    7.76
  13   0 -11  811.77   31.65
  13   0  11  826.99   32.27
   0  13  11  836.72   30.07
   1  13   0   51.55    5.72
  -1  13   0   62.76    7.44
   1  13   0   62.64   11.95
  -1  13   0   60.89   11.99
  13   1   0   60.76    7.27
  -1  13   0   66.84    6.21
  -1  13   0   59.98    6.09
   1  13   0   59.89    5.98
  -1  13   0   55.44    6.23
  13  -1   0   67.65   11.63
  13   1   0   46.59   10.25
 -13   1   0   64.52    7.21
  13  -1   0   55.30    6.47
  -1  13  -2 1600.90   57.98
  -1  13  -2 1528.61   53.77
   1  13   2 1638.67   55.47
  13   1   2 1677.91   58.87
  13  -1   2 1530.70   56.41
   1  13   2 1534.56   71.76
   1  13  -2 1541.52   72.04
  -1  13   2 1600.29   55.32
  -1  13   2 1611.92   72.85
  -1  13  -2 1600.83   72.67
   1  13  -2 1557.33   54.20
   1  13  -2 1577.13   57.83
   1  13  -2 1555.60   53.49
   1  13   2 1594.11   55.06
  -1  13  -2 1524.15   53.67
  13  -1   2 1512.29   73.05
  13   1   2 1650.53   75.59
  -1  13   2 1594.94   56.88
   1  13   4    0.53    3.18
   1  13   4    1.91    4.13
   1  13  -4    3.91    5.34
  -1  13   4    1.93    4.17
  -1  13  -4   -1.96    4.24
  -1  13   4    1.60    3.05
  -1  13  -4    5.05    4.53
   1  13  -4   -0.79    4.19
   1  13   4   -1.57    3.58
  -1  13   4    2.68    2.74
 -13   1   4   -1.94    6.74
  -1  13   4    4.48    4.82
  13  -1   4    4.70    4.54
  13   1   4    2.43    6.20
  13   1   4    2.36    3.64
  13   1   4    3.74    4.51
  -1  13   4    6.49    4.87
   1  13   6  646.47   26.75
  -1  13   6  621.10   26.51
  -1  13  -6  701.50   31.71
   1  13  -6  687.76   30.91
 -13  -1   6  620.47   42.43
  -1  13   6  671.89   27.24
   1  13   6  644.92   26.81
 -13   1   6  667.59   42.56
  13   1  -6  612.07   30.50
 -13  -1  -6  534.29   52.53
  13  -1   6  641.13   31.46
  13   1   6  657.83   30.69
  13  -1   6  598.44   43.57
  13   1   6  668.60   45.91
  -1  13   6  636.51   30.92
   1  13   6  605.17   29.50
   1  13  -6  682.68   50.07
  -1  13   6  625.09   28.65
 -13   1  -6  506.88   44.87
  13   1   6  701.68   33.27
  13  -1   6  652.83   29.54
  -1  13   6  617.97   29.67
   1  13   6  607.38   27.67
   1  13   8  186.38   10.74
  -1  13   8  152.09   10.16
  -1  13  -8  199.52   15.31
  -1  13   8  157.40   10.29
   1  13  -8  144.27   11.14
   1  13  -8  184.19   13.67
  13   1  -8  182.09   13.85
  13  -1  -8  198.10   15.96
  13  -1   8  188.29   14.71
  13   1   8  192.13   14.36
  -1  13   8  172.60   13.41
   1  13   8  186.33   12.99
   1  13   8  165.99   12.20
  -1  13   8  170.47   12.69
   1  13 -10   74.57    6.51
  -1  13 -10   83.52    8.19
   1  13 -10   86.96    8.34
  13   1 -10   81.73    8.26
  -1  13  10   78.05    7.49
  13  -1  10   90.58    9.25
  13   1  10   79.99    8.22
  -1  13  10   95.19    7.78
   1  13  10   86.09    7.34
  13  -1 -12  241.42   10.97
  -1  13 -12  255.67   10.28
  -2  13  -1   27.14    4.23
  -2  13   1   21.16    5.14
   2  13   1   30.92    6.25
   2  13   1   31.45    9.15
  -2  13  -1   48.65    6.66
   2  13  -1   31.71    5.97
  -2  13   1   15.68    7.14
  13  -2  -1   22.90    4.41
   2  13  -1   38.56    5.23
  13   2  -1   59.50    6.98
  13   2   1   26.70    5.24
  13  -2   1   31.17    4.75
  -2  13   1   26.74    4.50
   2  13   1   31.94    4.94
   2  13  -1   25.11    4.09
   2  13   1   32.37    4.62
  -2  13   1   24.15    4.34
  -2  13  -1   23.38    3.96
  -2  13   1   23.30    4.86
  -2  13  -1   31.21    4.95
  13  -2  -1   31.09    7.71
  13   2   1   25.71    8.80
  13   2  -1   24.35    7.07
 -13   2   1   38.83    6.35
  -2  13  -1   31.84    5.27
 -13   2  -1   26.27    5.43
  -2  13   1   26.19    5.07
   2  13   1   34.78    5.97
  -2  13  -3   94.91    9.70
   2  13  -3   93.47    9.60
   2  13  -3   93.97   14.55
  -2  13   3   91.39   14.34
  -2  13  -3   91.69   14.13
  13   2   3   99.05    9.95
  -2  13  -3   98.77    9.01
 -13   2   3   84.76   13.10
   2  13  -3   82.76    8.87
   2  13  -3   89.97    8.64
  -2  13   3  102.64    8.31
  -2  13  -3   87.93    6.78
  -2  13  -3   97.20    8.09
  13   2   3   86.47    8.54
  13   2   3   72.16   14.14
  -2  13   3   92.21   10.64
  -2  13   3   99.24    9.26
   2  13   3   98.04    9.15
   2  13   5  233.79   13.34
  -2  13  -5  196.83   21.21
  -2  13   5  247.93   13.51
  -2  13  -5  219.71   16.08
   2  13  -5  234.96   15.75
   2  13  -5  236.58   15.09
   2  13   5  249.30   13.48
  -2  13   5  225.78   13.23
 -13   2   5  233.07   23.16
  13  -2   5  211.67   16.18
  13   2   5  233.58   15.32
  -2  13   5  243.93   17.27
  13   2   5  211.51   16.36
  13  -2   5  209.86   14.26
 -13   2  -5  211.77   30.93
  -2  13   5  205.82   14.50
   2  13   5  220.95   14.94
   2  13   7  204.91   11.96
   2  13   7  215.38   12.16
   2  13  -7  226.22   16.55
  -2  13   7  194.90   11.81
   2  13  -7  180.59   12.78
   2  13  -7  194.82   14.24
  -2  13   7  179.82   11.39
  13   2  -7  201.14   14.59
  13  -2   7  199.06   15.78
  13   2   7  201.44   14.60
  -2  13   7  191.67   14.93
   2  13   7  168.89   13.01
  13   2   7  212.79   16.78
  -2  13   7  212.22   14.21
  -2  13   7  211.00   14.53
   2  13   7  204.50   14.53
   2  13   7  183.19   12.56
  -2  13   9  164.53    9.62
 -13   2  -9  167.17   13.04
   2  13   9  165.41    9.55
   2  13  -9  169.96   11.28
  -2  13  -9  159.25   12.36
  13   2  -9  169.67   12.20
  13   2  -9  186.54   13.37
  13  -2   9  167.57   13.47
  -2  13   9  166.98   12.52
  13   2   9  193.42   13.15
  -2  13   9  166.14   11.65
   2  13   9  190.51   12.34
   2  13   9  154.78   10.79
   2  13 -11  117.66    8.15
  13   2 -11  101.78    7.31
  13   2  11  102.19    7.78
  -2  13  11  111.25    6.94
   2  13  11  113.07    7.04
   3  13   0  878.86   33.81
  -3  13   0  863.37   35.85
   3  13   0  874.16   35.88
  -3  13   0  952.11   50.58
  -3  13   0  898.71   33.22
   3  13   0  845.66   32.88
  -3  13   0  902.04   33.74
  -3  13   0  901.09   35.60
  13   3   0  857.72   47.69
  13   3   0  869.12   36.24
 -13   3   0  898.32   37.35
  -3  13   0  908.30   35.59
   3  13   2   77.20    7.49
  -3  13  -2  108.54    9.82
   3  13  -2   99.44    9.51
  -3  13  -2  114.93   15.68
  -3  13   2  107.64   15.17
  13   3   2   94.06    9.32
   3  13  -2   88.64    7.43
   3  13  -2  103.32    8.62
  -3  13  -2  103.29    7.58
   3  13  -2   92.02    6.81
   3  13   2   87.17    7.52
  -3  13   2   99.75    9.40
 -13   3   2   85.61   12.45
  -3  13  -2   91.04    8.37
  13   3   2  101.74   15.92
  -3  13  -2  107.16    8.70
  -3  13   2  109.54    8.81
 -13   3  -2  110.89   19.50
 -13   3  -2   92.76    9.82
  -3  13   2   90.99    8.34
   3  13   2  102.16    8.96
   3  13   4 1185.22   43.70
  -3  13  -4 1203.43   46.84
  -3  13  -4 1182.61   46.12
  -3  13   4 1168.49   59.31
  -3  13  -4 1044.28   57.30
   3  13  -4 1198.35   46.34
   3  13  -4 1156.05   45.34
   3  13   4 1188.68   43.34
  -3  13   4 1211.47   43.84
 -13   3   4 1133.63   56.96
  13   3   4 1125.19   44.72
  13   3   4 1206.19   64.62
  13  -3   4 1123.34   44.67
  13   3   4 1213.88   48.61
 -13   3  -4 1233.62   75.80
  -3  13   4 1249.70   45.86
   3  13   4 1210.60   45.84
   3  13  -6   15.75    4.44
   3  13   6   18.85    4.25
  -3  13   6   26.35    4.95
  -3  13  -6   23.82    6.94
 -13   3   6   14.20    6.23
   3  13  -6   25.72    6.15
   3  13  -6   17.67    5.02
   3  13   6   16.24    4.22
  -3  13   6   25.70    4.87
  13   3  -6   16.25    5.22
  -3  13   6   20.06    6.56
  13   3   6   27.49    5.46
  13   3   6   14.95    7.64
  13  -3   6   23.18    6.86
 -13   3   6   21.89    3.76
  13   3   6   15.43    6.00
 -13   3  -6   43.94   14.45
  -3  13   6   25.23    6.03
   3  13   6   24.78    6.06
  -3  13   8  640.08   24.77
   3  13   8  596.42   24.19
   3  13  -8  589.65   26.35
   3  13  -8  603.98   27.81
  13   3  -8  610.91   27.15
  -3  13   8  555.08   23.79
  13  -3  -8  578.09   31.40
  -3  13   8  636.11   29.38
  13   3   8  620.01   27.92
  -3  13   8  634.12   27.48
   3  13   8  621.68   27.38
   3  13   8  525.09   24.65
  -3  13  10   54.04    4.36
  13   3 -10   57.72    6.20
  13  -3 -10   74.89    8.97
  13   3 -10   60.81    6.25
  13   3  10   60.78    6.60
  -3  13  10   66.97    7.03
  -3  13  10   54.03    5.63
   3  13  10   55.83    5.76
   3  13  10   50.39    5.08
  -4  13   1 1271.23   62.25
  -4  13   1 1228.40   46.88
   4  13   1 1192.98   46.78
  -4  13  -1 1278.40   47.10
   4  13  -1 1243.92   46.94
  13   4   1 1211.51   47.64
   4  13  -1 1265.06   44.92
   4  13   1 1234.24   44.97
  -4  13  -1 1225.07   43.54
   4  13  -1 1202.25   43.30
   4  13   1 1259.49   44.38
  -4  13   1 1260.52   47.35
  -4  13  -1 1242.58   46.84
  13   4   1 1263.53   62.37
 -13   4   1 1233.74   48.87
  -4  13  -1 1245.74   46.37
  13   4  -1 1225.88   47.57
 -13   4  -1 1266.41   49.46
 -13   4  -1 1152.83   67.98
  -4  13   1 1212.87   46.67
  -4  13   1 1252.79   45.83
   4  13   1 1218.83   45.74
   4  13   3  157.64   10.39
  -4  13  -3  145.52   11.18
   4  13  -3  156.75   11.77
  -4  13  -3  137.70   10.82
  -4  13  -3  136.35   17.36
  -4  13   3  132.57   17.17
   4  13  -3  140.63   10.88
   4  13  -3  130.36   10.39
 -13   4   3  132.26   15.50
  -4  13   3  146.01   10.08
  -4  13  -3  128.84    8.65
  -4  13   3  134.63   11.31
  13   4   3  125.66   18.21
  -4  13   3  123.26   12.08
  -4  13  -3  141.91   10.29
  -4  13   3  154.87   10.63
  -4  13   3  145.96   10.64
 -13   4  -3  144.59   23.07
  -4  13   3  132.17   10.23
   4  13   3  152.72   10.95
   4  13   5 2113.14   71.89
  -4  13  -5 2034.25   75.52
  -4  13  -5 2034.58   88.53
   4  13   5 2130.22   72.29
   4  13  -5 2168.93   75.49
 -13   4   5 2225.35   89.90
   4  13  -5 2062.80   74.21
  -4  13   5 2100.75   72.18
  13   4  -5 2116.29   74.31
 -13   4  -5 2099.78   97.30
  13   4   5 2023.18   73.32
 -13   4   5 2124.68   96.00
 -13   4  -5 2163.33   72.26
 -13   4   5 2118.14   72.05
  13   4   5 2097.19   77.68
 -13   4  -5 2039.18  107.47
  -4  13   5 2162.19   74.12
   4  13   5 2157.94   74.25
   4  13   7   51.37    5.89
  -4  13   7   51.31    5.77
   4  13  -7   46.88    7.10
  13   4  -7   64.74    7.62
   4  13  -7   49.62    7.15
  13  -4  -7   42.40    9.49
  -4  13   7   53.70    5.96
  13   4   7   48.52    6.64
  -4  13   7   53.08    6.89
   4  13   7   49.31    6.93
  -4  13   9  981.82   35.05
   4  13   9  933.62   34.45
 -13   4  -9 1035.00   42.11
   4  13  -9 1030.57   38.97
  13   4  -9  991.25   37.05
  13   4  -9  961.07   38.82
  13  -4  -9 1054.60   42.87
  13  -4   9  975.22   41.83
  -4  13   9 1011.51   39.74
  13   4   9  953.75   37.88
  -4  13   9  993.57   37.17
   4  13   9  981.05   37.12
  -4  13 -11   57.65    4.43
   4  13 -11   60.36    4.71
  13  -4 -11   70.82    6.41
  13  -4  11   54.97    5.93
  -5  13   0 1482.03   68.51
  -5  13   0 1386.43   51.61
   5  13   0 1335.96   51.52
   5  13   0 1381.98   48.92
   5  13   0 1435.30   50.37
  -5  13   0 1457.37   52.68
  13   5   0 1384.28   66.10
  13   5   0 1391.73   52.99
  -5  13   0 1401.19   51.49
 -13   5   0 1437.27   54.71
  -5  13   0 1400.67   53.16
  13   5  -2   52.56    7.35
  -5  13  -2   51.91    6.62
   5  13  -2   33.63    5.99
  -5  13  -2   43.32    9.98
  -5  13   2   49.41   10.72
  13   5   2   32.23    6.72
  -5  13   2   51.14    5.94
   5  13   2   45.75    5.59
   5  13  -2   46.53    5.87
  -5  13   2   48.78    6.96
  13   5   2   51.92   12.08
 -13   5  -2   37.43    5.50
 -13   5   2   41.02    6.10
 -13   5  -2   32.35   11.09
  -5  13  -2   52.17    6.20
  -5  13   2   43.34    5.95
  -5  13   2   46.93    6.74
 -13   5  -2   41.86    8.00
  -5  13   2   48.21    6.37
   5  13   2   57.67    6.60
   5  13   4 1422.41   50.75
  -5  13  -4 1445.79   52.88
   5  13  -4 1447.06   53.30
  -5  13  -4 1426.72   53.97
   5  13   4 1419.33   51.23
  -5  13  -4 1432.75   67.52
  -5  13   4 1568.43   69.27
 -13   5   4 1338.02   63.90
   5  13  -4 1369.97   52.57
   5  13  -4 1452.17   52.84
  -5  13   4 1381.05   50.89
  13   5  -4 1452.85   52.07
  13   5   4 1352.06   71.05
  -5  13   4 1390.89   56.02
 -13   5   4 1589.77   76.99
 -13   5  -4 1417.85   75.65
 -13   5  -4 1419.31   51.38
 -13   5   4 1376.02   51.10
  13   5   4 1409.04   55.19
  -5  13   4 1429.60   52.47
  -5  13  -4 1491.50   52.14
  -5  13   4 1447.25   51.87
 -13   5  -4 1423.20   81.64
  -5  13   4 1406.94   51.77
   5  13   4 1401.92   51.87
  -5  13  -6   50.92    7.81
   5  13   6   68.22    6.82
   5  13  -6   65.74    7.98
  13   5  -6   49.90    6.48
  -5  13   6   64.59    6.61
   5  13  -6   53.84    7.07
  -5  13   6   53.08    8.85
  13   5   6   57.13    6.65
  13   5   6   57.42    8.43
  -5  13   6   56.93    7.07
   5  13   6   53.23    7.19
 -13   5  -8  484.70   25.87
   5  13   8  447.59   19.28
  -5  13   8  475.15   19.70
   5  13  -8  485.22   22.64
  13   5  -8  459.44   20.53
  -5  13   8  468.55   19.38
  13  -5  -8  435.71   24.49
  13  -5   8  454.56   25.48
  13   5   8  411.76   20.71
   5  13   8  467.01   20.92
  -5  13   8  470.44   20.98
  -5  13  10  198.81    9.32
  -5  13 -10  227.99   10.86
   5  13 -10  242.03   11.32
 -13   5 -10  220.47   13.23
   5  13 -10  231.52   12.46
  13  -5 -10  195.53   12.54
  13   5 -10  221.29   11.92
  13  -5  10  228.99   14.26
  -5  13  10  234.91   12.79
  -5  13  10  197.53   10.20
   5  13  10  219.53   10.60
   6  13  -1   23.91    4.55
   6  13   1   18.95    4.27
  -6  13  -1   20.86    4.83
   6  13  -1   29.94    5.35
  -6  13   1   14.09    6.18
  13   6   1   16.59    5.19
 -13   6   1   19.15    4.66
  -6  13  -1   20.23    5.17
  -6  13   1   25.47    5.70
 -13   6   1   17.54    9.80
 -13   6  -1   32.16   10.96
 -13   6  -1   24.56    4.83
  -6  13  -1   23.27    4.67
 -13   6   1   14.23    5.54
 -13   6  -1   22.60    6.39
  -6  13   1   20.91    5.33
   6  13   3    6.11    3.35
  -6  13  -3   -1.18    3.58
   6  13  -3    2.47    3.54
  -6  13  -3    1.96    4.63
  -6  13   3    1.95    4.21
  -6  13  -3    4.26    3.63
   6  13  -3    4.34    3.88
  -6  13   3    2.10    3.09
  -6  13   3    0.76    4.54
 -13   6   3    9.09    3.97
 -13   6   3    2.73    5.90
 -13   6  -3    2.85    6.16
  13   6   3    2.28    5.41
 -13   6  -3    5.28    2.95
 -13   6   3    7.00    3.24
 -13   6  -3    6.10    8.33
  -6  13  -3    2.36    2.86
  -6  13   3    2.36    2.68
  -6  13   3    2.85    3.38
  -6  13   3    4.85    3.29
   6  13   3    4.36    3.33
  -6  13  -5  126.43   10.05
   6  13  -5  150.88   11.16
  -6  13  -5  130.09   17.27
  -6  13  -5  140.18   11.94
   6  13   5  151.94   10.19
   6  13  -5  151.08   11.47
   6  13  -5  141.47   11.13
  -6  13   5  154.53   10.09
 -13   6  -5  121.86   19.38
  -6  13   5  124.93   12.01
 -13   6  -5  129.72    9.54
 -13   6   5  132.46    9.45
  -6  13   5  124.49   10.38
  -6  13  -5  136.20    9.87
  -6  13   5  149.38   10.06
  13   6   5  139.86   12.44
  -6  13   5  150.85   10.34
   6  13   5  150.34   10.40
   6  13  -7   72.29    7.70
  -6  13  -7   54.70    6.66
   6  13   7   67.92    6.29
  -6  13  -7   54.22    7.84
   6  13  -7   66.27    7.87
  -6  13   7   63.35    6.01
   6  13  -7   50.84    7.00
  13  -6  -7   69.19    9.13
  -6  13   7   71.80    8.94
  13  -6   7   65.01    9.63
  -6  13   7   57.05    6.38
   6  13   7   49.22    6.12
  -6  13  -9  143.18    8.81
   6  13  -9  157.47    9.40
  -6  13   9  156.60    8.45
 -13   6  -9  142.92   11.63
   6  13  -9  154.89   10.50
  13  -6  -9  141.18   10.79
  13   6  -9  164.42   10.82
  13  -6   9  168.16   13.16
  -6  13   9  153.88   11.16
  -6  13   9  159.46    8.92
   6  13   9  158.28    8.93
   6  13 -11   78.82    5.44
  13  -6 -11   74.31    4.96
  -7  13   0   77.12    8.53
  -7  13   0   96.52   14.93
 -13   7   0   83.94    7.92
  -7  13   0   93.23    8.40
 -13   7   0   82.17    9.79
  -7  13   0   74.47    9.21
  -7  13  -2 1252.92   61.55
  -7  13   2 1258.95   61.61
  -7  13  -2 1177.77   44.41
   7  13  -2 1187.98   44.78
  -7  13  -2 1164.54   45.78
   7  13  -2 1194.11   44.79
 -13   7   2 1235.75   46.14
 -13   7   2 1304.78   70.64
 -13   7  -2 1210.00   69.37
 -13   7  -2 1222.69   45.52
 -13   7   2 1280.86   45.83
  13   7  -2 1243.23   47.09
  13   7   2 1256.59   47.98
 -13   7   2 1254.94   49.79
  -7  13  -2 1239.44   45.69
  -7  13   2 1196.64   45.40
  -7  13   2 1156.63   47.17
 -13   7  -2 1155.23   49.60
   7  13   4    7.17    3.42
  -7  13  -4   10.00    3.81
   7  13  -4    6.13    3.37
  -7  13  -4    7.60    4.86
  -7  13   4   13.06    5.71
  13   7  -4    5.64    3.79
  -7  13  -4    5.40    3.74
   7  13  -4    5.93    3.39
   7  13  -4    3.21    3.52
  -7  13   4    6.18    3.23
  -7  13   4    5.19    5.16
 -13   7   4    5.08    4.91
 -13   7  -4    8.23    7.02
 -13   7  -4    3.93    2.83
 -13   7   4    5.54    2.94
  -7  13  -4   13.08    3.69
  -7  13   4   12.38    3.53
  -7  13   4    2.85    3.84
  -7  13   4    7.73    3.17
   7  13   4    6.85    3.14
  -7  13  -6  401.57   18.77
   7  13  -6  419.26   19.45
   7  13   6  410.32   18.79
  -7  13  -6  408.15   22.08
   7  13  -6  386.61   19.96
   7  13  -6  405.37   20.42
  -7  13   6  410.16   18.34
  13  -7   6  435.98   24.67
  -7  13   6  405.24   22.21
  13   7   6  403.16   21.83
  -7  13   6  401.82   20.12
  -7  13   6  407.85   18.42
   7  13   6  432.13   18.83
  -7  13  -8  123.38    7.97
   7  13  -8  121.34    8.25
 -13   7  -8  123.70   11.13
  -7  13   8  131.75    8.07
   7  13  -8  134.10    9.85
   7  13  -8  144.03   10.19
  13  -7  -8  137.39   10.45
  13   7  -8  140.85   10.38
  13  -7   8  140.87   12.26
  -7  13   8  120.91   10.34
  -7  13   8  115.23    7.62
   7  13   8  127.37    7.93
  13  -7 -10   37.67    4.23
   7  13 -10   32.36    4.18
  13   7 -10   40.22    4.30
  -7  13  10   35.43    4.44
  13  -7  10   36.25    4.85
  -8  13   1  451.35   32.96
  13   8  -1  440.27   21.76
  13   8   1  431.37   22.05
 -13   8   1  411.95   21.17
  -8  13  -1  448.04   22.19
 -13   8   1  415.02   37.25
 -13   8  -1  370.25   35.89
  13   8   1  449.10   22.15
 -13   8  -1  418.55   20.58
  -8  13  -1  406.77   20.50
 -13   8   1  433.61   23.89
  -8  13   1  418.84   22.57
 -13   8  -1  439.59   24.16
  -8  13  -3  643.75   40.14
  -8  13   3  552.18   37.75
   8  13  -3  602.69   25.37
  -8  13  -3  609.47   28.12
   8  13  -3  617.02   26.79
  -8  13   3  617.62   28.53
 -13   8   3  647.20   27.60
 -13   8   3  601.04   44.96
 -13   8  -3  549.07   43.79
  13   8  -3  645.12   27.99
 -13   8  -3  618.89   26.57
 -13   8   3  611.36   26.44
 -13   8   3  656.87   30.88
  -8  13  -3  656.35   27.20
  -8  13   3  620.37   26.65
  13   8   3  661.59   29.21
  -8  13   3  618.53   28.67
   8  13  -5  159.75    9.95
  -8  13  -5  160.51   12.41
   8  13  -5  131.62   10.23
   8  13  -5  153.88   11.11
  -8  13   5  145.06    9.52
  -8  13   5  134.37   11.94
 -13   8  -5  157.69   10.01
 -13   8   5  159.38    9.94
  13   8  -5  157.03   11.10
  -8  13   5  155.55   11.64
  -8  13  -5  149.74   10.04
  -8  13   5  154.83   10.09
   8  13   5  138.87    8.97
   8  13  -7  760.84   28.98
 -13   8  -7  780.25   34.58
  -8  13  -7  800.87   33.77
   8  13  -7  808.83   31.58
   8  13  -7  817.98   32.10
  13  -8  -7  755.68   32.05
  -8  13   7  769.88   28.63
  13   8  -7  798.96   32.98
  13  -8   7  818.52   35.60
  -8  13   7  761.61   33.22
  13   8  -7  812.59   31.37
  -8  13   7  808.66   31.43
  -8  13   9   20.40    2.70
  13   8  -9   19.79    2.96
 -13   8  -9   27.97    4.81
   8  13  -9   19.69    3.57
  13  -8  -9   16.52    3.46
  13   8  -9   21.96    4.06
  -8  13   9   19.23    3.87
  13  -8   9   15.42    4.14
 -13   9   0    0.71    3.55
  -9  13   0    4.10    4.86
  13   9   0   -0.69    3.20
  13   9   0    0.65    2.83
 -13   9   0    0.62    3.63
  -9  13   0    0.62    2.92
 -13   9   0   -0.94    4.43
  -9  13   0    3.43    4.90
   9  13  -2  779.50   30.95
  -9  13   2  755.72   33.17
 -13   9   2  768.50   32.47
  -9  13  -2  724.66   44.52
  -9  13   2  778.76   45.55
  13   9  -2  745.16   31.99
  -9  13  -2  781.30   32.70
 -13   9  -2  779.57   31.65
 -13   9   2  748.95   31.35
  -9  13  -2  821.79   32.14
  -9  13   2  757.42   31.46
 -13   9   2  810.80   35.62
  13   9   2  823.79   33.44
  -9  13   2  791.47   34.29
 -13   9  -2  775.43   35.78
   9  13  -4   15.38    3.99
  -9  13   4   14.00    3.50
  -9  13  -4   16.35    4.73
  13   9  -4   16.05    4.17
 -13   9  -4   14.57    3.62
 -13   9   4   22.05    4.14
  13   9   4   16.52    4.73
  -9  13  -4    9.62    3.38
  -9  13   4   16.67    3.73
 -13   9   4   18.67    5.70
  -9  13   4   24.32    5.42
  -9  13  -6  488.31   23.92
   9  13  -6  495.42   21.67
   9  13  -6  482.68   22.24
  -9  13   6  500.44   20.05
  13  -9  -6  495.01   22.64
  13  -9   6  462.80   24.62
   9 -13   6  466.42   22.61
  -9  13   6  511.76   22.94
  13   9  -6  528.17   22.03
 -13   9  -8   28.52    5.06
  -9  13  -8   38.84    5.49
  -9  13   8   36.27    3.91
   9  13  -8   38.55    4.73
  13  -9  -8   40.30    4.73
   9  13  -8   36.28    5.00
  13   9  -8   44.63    5.36
  13  -9   8   37.26    5.70
  13   9  -8   38.72    4.05
  -9  13   8   26.08    3.89
  13   9 -10  159.22    7.62
 -13  10  -1    4.13    4.05
 -10  13   1    4.90    4.17
 -13  10   1    8.77    4.02
  13  10  -1    9.33    3.95
  13  10  -1    6.71    2.97
  13  10   1    9.27    3.59
 -13  10  -1    4.67    3.39
 -10  13  -1    8.22    3.41
 -13  10   1    8.02    4.87
 -10  13   1    4.09    4.26
 -13  10  -1    5.54    4.89
  10  13  -3  179.59   11.71
 -10  13   3  248.17   14.44
 -13  10   3  193.28   12.65
  13  10  -3  211.28   12.52
 -10  13  -3  209.59   13.63
  13  10  -3  220.88   11.92
 -13  10  -3  206.02   12.16
 -13  10   3  200.49   12.02
 -10  13  -3  190.50   11.95
 -10  13   3  202.40   12.16
 -13  10   3  201.34   14.64
 -10  13   3  174.55   13.20
  13  10   3  199.64   13.06
  10  13  -5  134.73    9.94
 -10  13   5  144.67    8.74
  13  10  -5  160.22   11.12
  13 -10  -5  160.58   10.66
 -10  13  -5  164.09   11.79
 -13  10  -5  149.20    9.12
 -13  10   5  143.53    9.05
 -10  13   5  133.46   10.59
 -10  13  -5  147.04    9.25
 -10  13   5  127.78    8.75
  13  10  -5  152.97    9.80
 -10  13  -7  277.57   14.98
  10  13  -7  246.25   12.49
  10  13  -7  272.58   13.69
  13 -10  -7  264.74   12.79
  13 -10   7  264.90   15.22
 -13  10   7  279.94   14.98
 -10  13   7  254.76   13.37
  13  10  -7  236.39   11.85
  13  10  -9   76.90    4.97
  13  10  -9   74.94    5.48
 -10  13  -9   65.35    4.26
 -10  13   9   84.40    4.30
 -11  13   0  624.05   26.37
 -13  11   0  553.29   25.46
 -13  11   0  564.14   24.60
 -11  13   0  533.47   24.28
  13  11   0  554.26   23.89
 -13  11   0  580.86   28.15
 -11  13   0  551.85   27.18
  11  13  -2    0.44    2.41
 -11  13   2    3.88    3.80
 -13  11   2    0.61    3.25
  13  11  -2   -1.05    2.38
  13  11  -2    2.50    2.06
 -13  11  -2    2.63    2.59
 -13  11   2    1.57    2.32
 -11  13  -2   -1.06    2.45
 -11  13   2   -1.05    2.27
  13  11   2   -1.12    2.61
 -11  13   2   -0.74    3.73
  11  13  -4  531.99   22.72
  13  11  -4  516.45   23.26
 -11  13   4  531.20   21.51
  13  11  -4  546.28   22.43
 -11  13  -4  515.65   24.20
 -13  11  -4  535.19   22.23
 -13  11   4  557.14   22.33
 -11  13  -4  557.80   22.53
 -11  13   4  531.73   22.09
 -11  13   4  523.96   24.45
  13  11  -6    1.85    1.71
 -13  11  -6    3.09    3.11
 -11  13  -6    3.36    3.11
  11  13  -6    5.72    2.92
 -11  13   6    0.75    1.72
  13  11  -6    6.72    3.31
  13 -11   6    1.26    3.23
  11 -13   6    4.24    3.12
 -13  11   6    5.11    3.29
 -11  13   6    5.01    2.95
  11  13  -8  172.34    9.18
 -11  13   8  176.82    7.95
 -12  13   1  463.18   21.07
 -13  12   1  409.90   20.18
 -12  13  -1  439.09   20.59
 -13  12  -1  450.86   20.67
 -13  12  -1  434.08   19.64
 -13  12   1  406.66   19.40
 -12  13  -1  432.19   19.70
 -12  13   1  426.58   19.64
 -12  13   1  436.56   22.07
  13  12   1  423.46   18.94
  12  13  -3  132.69    8.64
  13  12  -3  128.47    8.91
 -12  13  -3  151.17    9.99
 -13  12  -3  120.29    9.21
 -12  13  -3  123.07    9.46
 -13  12  -3  140.51    9.08
 -13  12   3  140.36    8.94
 -12  13  -3  141.29    9.08
 -12  13   3  136.98    8.93
 -13  12   3  126.69   10.41
 -12  13   3  127.57   10.15
 -13  12  -5  634.45   27.19
 -12  13  -5  673.46   27.12
  12  13  -5  641.39   25.36
  13  12  -5  670.36   25.89
 -12  13   5  679.34   23.93
 -13  12   5  653.71   23.57
  13 -12   5  678.76   28.23
  12 -13   5  680.33   27.75
 -13  12  -5  649.13   24.18
 -13  12   5  615.95   23.79
 -12  13  -5  651.75   24.24
 -13  12   5  669.70   27.43
 -12  13   5  639.69   23.95
 -12  13   5  648.91   26.83
 -12  13  -7   16.14    2.89
  12  13  -7   20.15    3.17
  13  12  -7   18.19    3.02
 -13  12  -7   20.38    3.61
 -13  12   7   19.68    3.38
 -13  13   0  954.62   35.48
 -13  13   0  902.31   34.51
 -13  13   2    2.89    2.94
 -13  13  -2    0.48    3.15
 -13  13  -2   -1.82    2.41
 -13  13  -2    2.50    2.20
 -13  13   2    1.66    2.34
 -13  13   2    3.05    3.12
 -13  13   4  653.46   23.35
  13  13  -4  598.23   23.85
 -13  13  -4  646.64   25.24
 -13  13  -4  619.80   25.46
 -13  13  -4  642.15   24.05
 -13  13   4  653.54   23.99
 -13  13   4  656.22   26.59
  13  13  -6   25.38    3.19
   0  14   0  312.09   17.40
   0  14   0  277.45   14.83
   0  14   0  330.32   28.30
   0  14   0  321.25   15.47
  14   0   0  292.02   25.41
  14   0   0  308.04   16.69
   0  14  -2 1235.82   44.72
   0  14  -2 1254.62   48.32
   0  14   2 1314.33   46.35
  14   0   2 1278.35   47.81
   0  14   2 1224.78   63.33
   0  14  -2 1174.31   62.52
   0  14   2 1280.20   46.06
   0  14  -2 1283.29   44.67
  14   0   2 1232.65   64.47
   0  14   2 1301.80   47.80
   0  14   4    1.09    2.99
   0  14  -4   -2.03    6.81
   0  14  -4    1.51    4.79
   0  14  -4    1.60    4.10
   0  14   4   -0.54    3.15
  14   0   4   -2.44    4.72
  14   0   4    3.29    3.89
  14   0   4   -0.84    3.91
   0  14   4    3.39    3.98
   0  14   6  339.08   16.85
   0  14  -6  318.59   19.38
   0  14   6  337.21   16.83
  14   0  -6  317.30   19.95
  14   0   6  308.17   19.42
   0  14   6  369.17   19.97
  14   0   6  343.47   19.46
   0  14   6  364.08   19.02
   0  14   8   61.43    5.95
   0  14  -8   48.23    7.65
  14   0  -8   66.01    8.56
   0  14   8   60.46    7.08
  14   0   8   46.63    7.40
   0  14   8   55.10    6.79
   0  14 -10   23.10    4.07
  14   0 -10   26.81    4.52
  14   0  10   26.47    4.71
   0  14  10   19.50    3.35
  -1  14   1   34.97    5.23
  -1  14   1   45.36    7.15
  -1  14  -1   43.56    6.76
  -1  14  -1   44.49    5.36
   1  14   1   38.03   10.08
  -1  14   1   44.50   11.10
  14   1  -1   34.15    5.85
  14  -1  -1   35.82    5.71
   1  14  -1   48.59    5.61
  14   1   1   51.81    6.60
  14  -1   1   43.32    5.88
   1  14   1   48.47    5.93
   1  14   1   50.40    5.83
   1  14  -1   38.57    4.88
  -1  14   1   37.12    5.24
  -1  14  -1   45.01    5.34
  -1  14  -1   43.64    5.33
  14  -1   1   26.04    8.31
  14   1   1   32.73    9.14
 -14   1   1   39.65    5.89
  -1  14   1   36.81    5.79
  -1  14  -3  246.05   15.46
  -1  14   3  256.52   13.87
   1  14   3  253.11   24.51
   1  14  -3  241.60   24.12
  -1  14   3  246.43   24.32
  -1  14  -3  243.57   24.03
   1  14  -3  233.74   15.35
  -1  14   3  255.22   13.77
  -1  14  -3  233.72   11.91
  14   1   3  217.49   14.45
  14   1   3  228.88   25.22
  14  -1   3  187.50   22.75
  -1  14   3  237.02   14.57
  -1  14   5    2.68    3.23
  -1  14  -5   -1.92    4.55
  -1  14  -5    0.78    4.70
   1  14   5    4.87    3.47
 -14   1   5    6.07    5.53
  -1  14  -5    6.80    4.79
   1  14  -5    0.81    4.08
 -14  -1   5    2.18    5.16
   1  14   5    1.06    2.99
  -1  14   5    0.54    2.97
  14   1   5    2.42    4.12
  -1  14   5    6.86    4.39
  14  -1   5    4.91    5.81
  14   1   5    2.50    4.84
  14  -1   5    1.82    3.82
  14   1   5    0.89    4.11
  14  -1   5    4.47    3.60
 -14   1  -5   -4.06    6.79
  -1  14   5    4.78    3.79
   1  14   7  351.33   16.81
  -1  14   7  325.51   16.47
   1  14   7  366.70   17.02
  -1  14  -7  337.84   19.78
   1  14  -7  379.83   20.17
  -1  14   7  359.52   16.89
  14   1  -7  379.75   20.44
  14  -1  -7  346.39   21.05
  14  -1   7  334.40   20.22
  14   1   7  314.76   19.21
  -1  14   7  339.01   19.42
  -1  14   7  371.88   18.97
  -1  14   9   44.36    4.47
   1  14   9   31.46    3.96
   1  14  -9   41.75    6.03
  14   1  -9   33.47    5.79
  14  -1  -9   38.37    6.37
  14   1  -9   42.87    5.67
  -1  14   9   48.69    6.02
  14  -1   9   43.11    6.73
  14   1   9   43.37    6.19
  -1  14   9   50.33    5.86
  14  -1 -11  276.10   12.57
  -1  14 -11  296.18   11.87
   2  14   0  246.58   13.22
  -2  14   0  222.58   14.35
   2  14   0  250.34   15.03
   2  14   0  231.64   23.89
  -2  14   0  243.81   24.47
  -2  14   0  219.49   12.31
   2  14   0  234.19   12.53
  -2  14   0  228.83   12.74
  -2  14   0  215.73   13.15
  14  -2   0  201.46   20.55
  14   2   0  177.50   19.83
  14  -2   0  241.75   13.43
 -14   2   0  222.53   14.47
  14   2   0  228.05   14.26
   2  14   2  227.59   12.84
  -2  14  -2  235.35   14.42
   2  14  -2  191.26   13.43
  14   2   2  205.23   14.16
  -2  14   2  213.45   12.42
   2  14  -2  196.90   11.66
  -2  14   2  179.93   20.81
  -2  14  -2  162.62   19.85
 -14   2   2  195.09   18.84
   2  14  -2  201.64   11.01
   2  14   2  203.97   12.08
  -2  14  -2  253.88   12.30
  -2  14  -2  198.22   12.11
  14  -2   2  196.67   22.20
  14   2   2  240.45   24.32
 -14   2  -2  208.24   13.89
  -2  14   2  203.04   13.14
   2  14   2  241.71   14.11
  14   2  -2  219.23   14.08
   2  14   4  209.40   12.83
  -2  14  -4  232.64   14.75
   2  14  -4  223.86   14.88
  -2  14   4  212.01   22.20
  -2  14  -4  240.47   23.33
   2  14  -4  192.23   14.20
   2  14   4  232.86   12.93
  -2  14   4  236.16   13.27
 -14   2   4  189.91   20.45
  14   2   4  231.65   14.42
  14  -2   4  183.45   22.57
  14   2   4  190.69   23.55
  14  -2   4  212.13   14.11
  14   2   4  234.87   15.90
 -14   2  -4  230.42   31.68
  -2  14   4  237.21   14.22
   2  14   4  222.26   14.06
   2  14   6  122.58    9.03
   2  14   6  105.69    8.66
  -2  14   6  113.58    8.77
   2  14  -6  117.57   10.91
  -2  14   6  116.07    8.86
  14   2  -6  114.64   10.69
  14  -2   6  122.48   11.76
  14   2   6  113.02   10.43
  -2  14   6  107.13   11.05
  14   2   6  107.31   11.27
  -2  14   6  111.34    9.66
   2  14   6  129.21   10.43
   2  14   8   32.66    4.52
 -14   2  -8   32.52    6.67
  -2  14   8   35.20    4.53
   2  14  -8   31.40    5.83
  14   2  -8   37.20    6.35
  -2  14   8   34.03    4.36
  -2  14   8   33.23    6.11
  14  -2   8   21.11    5.56
  14   2   8   30.01    5.52
  -2  14   8   37.08    5.65
   2  14   8   33.54    5.53
  -2  14 -10   -0.37    2.85
   2  14 -10   -0.77    2.84
  14   2 -10   -2.34    2.72
  14   2  10   -0.44    2.45
  14  -2  10    3.89    2.84
  -2  14  10    1.34    2.13
   2  14  10   -0.67    2.32
   3  14   1  184.76   11.49
  -3  14   1  168.97   12.44
   3  14   1  182.82   12.94
  -3  14  -1  172.54   12.42
   3  14  -1  192.84   12.98
  14   3   1  193.93   13.17
  -3  14  -1  187.29   10.64
   3  14  -1  196.68   11.61
  -3  14   1  197.45   11.35
  -3  14   1  181.78   20.88
   3  14  -1  188.11   10.58
   3  14   1  177.58   10.97
  -3  14   1  171.76   11.07
  -3  14  -1  188.30   11.16
  -3  14   1  194.59   12.64
  -3  14  -1  183.48   12.03
  14   3   1  196.46   21.12
 -14   3   1  164.41   12.78
  -3  14  -1  198.14   12.63
 -14   3  -1  174.05   13.17
 -14   3  -1  152.76   22.69
  14   3  -1  186.36   12.97
  14  -3  -1  204.68   11.90
  -3  14  -3   11.62    4.78
   3  14  -3   12.60    4.84
  -3  14   3    8.18    5.24
  -3  14  -3   10.23    5.94
  -3  14   3   13.71    3.86
  -3  14  -3   10.79    3.40
   3  14  -3   11.95    4.22
  -3  14   3   13.32    4.00
  -3  14  -3   13.22    3.05
 -14   3   3   14.60    5.44
  14   3   3   21.34    8.58
 -14   3  -3   13.69    9.93
  -3  14   3   14.74    4.42
   3  14   3   10.70    4.14
   3  14   5  594.45   25.15
  -3  14  -5  593.30   27.09
   3  14  -5  615.48   27.61
   3  14   5  605.27   24.98
  -3  14  -5  563.55   37.52
  -3  14   5  599.73   24.95
   3  14  -5  567.46   27.13
 -14   3   5  568.38   37.04
  -3  14   5  572.19   24.94
  14   3  -5  608.47   27.51
  14  -3   5  559.80   29.03
  14   3   5  576.29   26.30
  14  -3   5  570.63   40.87
  14   3   5  630.87   43.37
  -3  14   5  569.61   28.69
 -14   3  -5  571.23   24.85
 -14   3   5  617.81   25.21
  14   3   5  564.75   28.68
 -14   3  -5  545.71   49.48
  -3  14   5  593.03   26.16
   3  14   5  578.51   26.17
  -3  14   7   73.86    6.60
   3  14   7   59.53    6.09
   3  14  -7   71.92    8.46
  -3  14   7   58.22    5.99
  14   3  -7   72.84    8.04
  14  -3  -7   60.21    9.60
  14  -3   7   68.91    9.31
  14   3   7   59.64    7.18
  -3  14   7   76.55    8.86
  -3  14   7   73.89    7.29
   3  14   7   63.26    6.98
  -3  14   9  421.64   17.23
  -3  14  -9  460.11   19.53
   3  14  -9  435.04   19.47
   3  14   9  412.66   17.03
 -14   3  -9  414.35   20.56
   3  14  -9  418.91   20.03
  14   3  -9  430.43   19.15
  14  -3  -9  462.31   22.45
  14   3  -9  439.13   19.98
  14  -3   9  441.53   21.93
  -3  14   9  423.26   20.18
  14   3   9  407.72   19.48
  -3  14   9  428.13   18.63
   3  14   9  424.17   18.57
  14  -3 -11    7.96    2.52
  -3  14 -11    6.14    1.63
   3  14 -11    7.22    1.76
  -4  14   0  490.28   23.44
   4  14   0  464.79   23.04
   4  14   0  505.85   21.97
  -4  14   0  478.62   20.76
  -4  14   0  484.39   35.58
   4  14   0  489.76   20.90
  -4  14   0  504.13   21.57
  -4  14   0  513.14   23.41
  14   4   0  476.99   33.31
  14   4   0  495.11   24.08
 -14   4   0  488.80   24.73
  -4  14   0  488.24   22.99
   4  14  -2    2.95    2.81
  -4  14  -2    2.61    3.51
   4  14  -2    1.33    3.62
  -4  14   2    2.07    3.99
  -4  14  -2    2.06    3.98
   4  14   2    4.34    3.10
  14   4  -2    2.17    3.63
  14   4   2    9.14    4.71
  -4  14  -2    0.60    2.92
   4  14  -2    3.80    2.97
   4  14  -2    1.84    2.08
   4  14   2    4.42    3.11
  -4  14  -2    2.70    2.38
  -4  14   2    2.06    3.52
  14   4   2    6.57    5.18
 -14   4  -2    2.48    3.83
 -14   4  -2   12.27    7.84
 -14   4   2    5.81    4.17
  -4  14  -2    0.62    3.46
  -4  14   2    4.39    3.09
  -4  14   2   -0.59    3.53
   4  14   2    3.56    3.34
  -4  14  -4  621.91   27.79
   4  14  -4  655.77   28.43
  -4  14  -4  638.79   28.25
   4  14   4  641.44   26.33
  -4  14   4  607.82   39.81
  -4  14  -4  561.70   38.92
   4  14   4  663.60   26.93
   4  14  -4  637.62   28.18
 -14   4   4  567.55   36.44
   4  14  -4  621.05   27.79
  -4  14   4  636.22   26.50
  -4  14  -4  609.80   24.06
  -4  14  -4  644.62   26.80
  14   4   4  550.61   41.38
 -14   4  -4  624.43   46.33
 -14   4  -4  667.55   27.13
 -14   4   4  647.54   26.90
  14   4   4  617.16   29.80
 -14   4  -4  548.30   48.32
  -4  14   4  669.62   27.52
   4  14   4  631.19   27.26
   4  14   6    3.99    3.09
  -4  14  -6    5.22    3.73
   4  14  -6    7.42    3.86
  -4  14   6    1.95    2.91
   4  14  -6    1.43    3.73
  14   4  -6    1.26    3.11
   4  14  -6    0.67    3.60
  -4  14   6    0.97    2.73
  14   4   6    5.90    3.33
  14  -4   6    3.88    4.50
  14   4   6    5.14    4.69
  -4  14   6    3.49    3.18
   4  14   6    1.17    3.45
  -4  14  -8  274.56   14.37
   4  14  -8  279.20   14.69
  -4  14   8  273.73   12.87
  -4  14   8  258.55   12.34
 -14   4  -8  263.12   17.02
   4  14   8  272.55   12.87
   4  14  -8  258.40   14.86
  14   4  -8  259.05   13.86
  14  -4  -8  284.50   17.66
  -4  14   8  236.11   15.21
  14   4   8  218.80   13.49
  -4  14   8  245.57   13.41
   4  14   8  255.48   13.53
   4  14 -10   38.36    4.69
  14  -4 -10   32.01    4.96
  14   4 -10   36.35    3.84
  -4  14 -10   24.27    3.29
   4  14 -10   32.98    3.70
  -4  14  10   36.04    3.57
   5  14  -1   44.53    5.73
   5  14  -1   69.18    7.30
   5  14   1   47.77    6.00
  -5  14  -1   61.38    6.76
  -5  14   1   51.95   10.92
   5  14   1   49.06    5.63
  14   5  -1   45.46    7.11
  14   5   1   43.45    7.00
   5  14  -1   56.22    5.33
  -5  14  -1   49.25    5.15
  -5  14  -1   47.05    5.61
  -5  14   1   45.54    6.71
  -5  14  -1   53.48    6.85
  14   5   1   56.70   11.34
  -5  14   1   47.15    6.69
  -5  14  -1   55.40    6.76
 -14   5   1   56.81    8.14
 -14   5  -1   49.87    7.50
 -14   5  -1   49.51    6.12
  -5  14  -3   39.11    6.02
   5  14  -3   36.78    5.96
  -5  14  -3   45.98   10.07
  -5  14   3   11.96    6.14
  14   5  -3   28.82    5.76
  -5  14  -3   23.14    4.67
   5  14   3   21.90    4.40
   5  14  -3   25.63    5.18
  -5  14   3   25.65    4.73
  -5  14  -3   23.18    3.82
 -14   5   3   27.51   10.66
 -14   5  -3   22.87    9.20
  14   5   3   27.40    8.58
  14   5   3   30.35    6.63
 -14   5  -3   32.29    5.20
 -14   5   3   23.34    4.62
 -14   5  -3   21.87   10.49
  -5  14  -3   24.04    4.82
  -5  14   3   29.56    5.11
  -5  14   3   25.94    4.80
  -5  14   3   35.07    5.54
   5  14   3   30.39    5.39
  -5  14  -5  268.90   15.17
   5  14  -5  241.65   14.92
  -5  14  -5  265.76   16.17
   5  14   5  282.91   14.64
   5  14  -5  260.96   15.57
   5  14  -5  276.42   15.66
  14   5  -5  258.21   14.52
  -5  14   5  280.69   14.35
  -5  14   5  262.21   17.30
 -14   5  -5  246.32   13.83
 -14   5   5  280.95   14.42
  14   5   5  257.61   16.82
  -5  14   5  259.45   14.52
   5  14   5  262.73   14.58
   5  14  -7   35.29    5.84
  14   5  -7   44.48    5.28
  -5  14   7   41.78    4.82
  14  -5  -7   38.31    7.39
  -5  14  -7   47.69    6.17
   5  14  -7   40.75    5.92
   5  14   7   48.36    5.36
  -5  14   7   50.14    5.37
   5  14   7   56.73    5.84
  -5  14   7   49.28    5.44
  -5  14  -9  178.40    9.42
   5  14  -9  181.58    9.73
  -5  14   9  172.85    8.76
 -14   5  -9  177.75   11.85
   5  14  -9  180.65   10.85
  14  -5  -9  201.52   12.10
  14   5  -9  167.13   10.53
  14  -5   9  192.31   12.77
  -5  14   9  161.13   10.86
  -5  14   9  173.51    9.14
   5  14   9  172.26    9.17
  -6  14   0  336.39   17.89
  -6  14   0  347.08   28.49
  14   6   0  302.68   17.84
   6  14   0  331.14   16.31
 -14   6   0  303.25   16.71
  -6  14   0  298.68   16.82
 -14   6   0  289.32   18.46
  -6  14  -2  690.56   43.09
  -6  14   2  651.50   42.21
  -6  14  -2  669.34   28.61
   6  14  -2  694.87   29.20
  14   6   2  695.20   31.18
   6  14  -2  697.68   28.23
  -6  14   2  661.62   27.84
  -6  14   2  651.40   30.05
 -14   6   2  672.87   28.41
  -6  14  -2  686.71   29.65
 -14   6  -2  710.25   50.04
 -14   6   2  798.85   52.30
 -14   6  -2  687.68   29.05
 -14   6   2  715.92   29.34
 -14   6   2  737.56   32.61
  -6  14  -2  724.09   29.62
  -6  14   2  706.73   29.48
  -6  14   2  703.62   30.28
 -14   6  -2  699.03   32.43
   6  14  -4   70.55    7.51
   6  14  -4   77.54    7.88
  -6  14   4   88.90    7.51
  -6  14  -4   74.66    6.05
  -6  14  -4   80.02    7.53
   6  14  -4   79.36    7.68
  -6  14  -4   87.26    8.52
   6  14   4   79.06    7.50
 -14   6  -4   78.91    7.47
 -14   6   4   82.40    7.37
  14   6   4   82.08    8.97
  -6  14  -4   88.33    7.99
  -6  14   4   79.35    7.58
  -6  14   4   71.09    7.45
  -6  14   4   73.67    7.05
   6  14   4   77.75    7.20
  -6  14  -6  106.67    8.48
   6  14  -6  109.56    8.81
   6  14   6  103.08    8.06
  -6  14  -6  107.98    9.83
   6  14  -6  109.91    9.43
   6  14  -6  109.42    9.19
  -6  14   6  113.16    8.14
  -6  14   6  115.24   10.69
  -6  14   6  120.13    8.45
   6  14   6  107.23    8.30
  14   6   6  122.85   10.85
  -6  14   8   13.48    2.91
  -6  14  -8   11.42    2.82
   6  14  -8   13.96    3.13
 -14   6  -8    7.07    4.00
   6  14  -8    7.60    3.23
  14  -6  -8   14.77    4.26
  14   6  -8   12.23    4.11
  -6  14   8   12.34    4.27
  14  -6   8   10.65    4.30
  -6  14   8   11.89    2.83
   6  14   8   12.33    2.89
  14  -6 -10    2.34    2.08
   6  14 -10    2.08    1.97
  14   6 -10    4.37    1.80
   7  14  -1  103.86    8.69
  -7  14  -1   97.79   15.07
  -7  14   1  103.73   15.56
   7  14   1  102.06    8.46
  -7  14   1  114.28    9.82
 -14   7   1  121.77    9.49
  -7  14  -1  114.77    9.89
 -14   7   1   84.91   17.04
 -14   7  -1   85.03   16.83
 -14   7  -1  106.97    8.95
  -7  14  -1  114.21    9.25
 -14   7   1  101.11   10.52
 -14   7  -1   97.23   10.67
  -7  14   1   96.90    9.82
   7  14  -3  189.08   12.30
  -7  14   3  207.22   12.12
 -14   7   3  197.26   12.28
  -7  14  -3  221.26   13.52
  -7  14  -3  205.53   12.17
   7  14  -3  197.93   12.20
   7  14   3  234.09   13.13
  -7  14  -3  195.11   12.99
 -14   7  -3  216.21   12.82
 -14   7   3  214.60   12.75
 -14   7   3  223.71   15.40
  -7  14  -3  233.91   13.30
  -7  14   3  203.33   12.71
  -7  14   3  213.16   13.77
  14   7  -3  231.96   14.10
   7  14  -5   16.84    4.04
   7  14  -5   16.99    4.20
  -7  14   5   19.00    3.88
   7  14   5   22.24    4.41
  -7  14  -5   20.47    4.04
   7  14  -5   21.36    4.26
  14   7  -5   20.51    4.53
  -7  14  -5   14.46    4.65
 -14   7  -5   19.23    3.78
 -14   7   5   21.19    3.77
  14   7   5   15.59    4.79
  -7  14  -5   14.26    3.41
  -7  14   5   20.89    4.19
  -7  14   5   28.34    4.21
   7  14   5   14.96    3.40
  -7  14  -7  299.56   14.04
   7  14  -7  311.79   14.61
  -7  14   7  348.45   14.96
   7  14  -7  321.54   16.04
   7  14  -7  325.98   16.36
  -7  14   7  332.23   14.04
  14  -7  -7  304.43   16.87
  14  -7   7  320.71   18.86
  -7  14   7  345.11   17.94
  14   7  -7  324.01   16.00
  -7  14   7  311.96   14.05
   7  14   7  292.32   13.89
  14   7  -9    9.83    2.32
 -14   7  -9    9.44    3.15
  -7  14   9   12.54    2.12
   7  14  -9   14.42    2.98
  14  -7  -9   15.26    3.37
  14   7  -9   10.40    2.92
  14  -7   9   16.91    3.79
 -14   8   0   55.73    6.92
  -8  14   0   54.87    7.14
  14   8   0   59.53    7.46
 -14   8   0   58.54    6.71
  -8  14   0   63.78    7.02
 -14   8   0   52.68    8.19
  -8  14   2  688.22   27.28
 -14   8   2  707.90   28.56
  -8  14  -2  718.30   29.47
   8  14  -2  638.65   26.52
  14   8  -2  635.93   28.78
 -14   8  -2  655.89   28.05
 -14   8   2  634.12   27.76
  14   8   2  689.54   30.01
 -14   8   2  739.07   32.42
  -8  14  -2  669.45   28.34
  -8  14   2  652.87   28.04
  -8  14   2  683.58   30.04
   8  14  -4    6.55    2.99
  -8  14   4    8.26    3.04
   8  14  -4    5.47    2.64
  14   8  -4    5.40    3.13
  -8  14  -4    4.54    3.14
 -14   8  -4    3.03    2.30
 -14   8   4    3.48    2.46
  -8  14  -4    9.41    3.24
  -8  14   4    4.61    2.53
 -14   8   4    5.64    4.34
  -8  14   4    6.29    3.39
   8  14  -6  257.60   12.71
  -8  14  -6  296.33   16.20
   8  14  -6  280.31   14.37
   8  14  -6  297.38   15.15
  -8  14   6  283.42   13.20
  14  -8  -6  281.13   15.76
  14  -8   6  291.91   17.58
  -8  14   6  278.92   14.57
  14   8  -6  305.35   15.09
  -8  14   8   18.00    2.84
  14   8  -8   19.97    3.14
 -14   8  -8   17.95    4.09
  -8  14  -8   14.45    2.57
   8  14  -8   18.57    3.34
  14  -8  -8   20.41    3.96
  14   8  -8   11.97    3.46
  14  -8   8   12.16    3.79
 -14   9  -1    1.28    3.45
 -14   9   1    3.03    3.42
  -9  14  -1    3.87    3.89
  14   9  -1    0.64    3.14
 -14   9  -1    2.65    4.44
  14   9  -1    1.19    2.51
  14   9   1    8.35    3.62
 -14   9  -1    1.72    2.83
  -9  14  -1    1.16    2.74
 -14   9   1   -1.72    4.24
  -9  14   1    2.26    3.86
   9  14  -3  131.52    9.36
  -9  14   3  164.73    9.70
  -9  14   3  148.97   10.99
 -14   9   3  144.30    9.95
  -9  14  -3  142.20   10.37
  14   9  -3  130.54    9.80
  -9  14  -3  119.04    9.71
 -14   9  -3  139.40    9.62
 -14   9   3  129.27    9.32
 -14   9   3  154.61   12.19
  -9  14  -3  139.18    9.78
  -9  14   3  137.67    9.74
  -9  14   3  131.80   10.71
  14   9   3  137.85   10.72
   9  14  -5   55.66    6.13
  -9  14   5   60.44    5.44
  -9  14  -5   53.85    4.46
  -9  14  -5   72.85    7.34
 -14   9  -5   52.95    5.23
 -14   9   5   56.37    5.38
  -9  14  -5   65.14    5.89
  -9  14   5   61.04    6.60
 -14   9   5   54.99    7.20
  14   9  -5   61.23    6.30
 -14   9  -7  317.16   16.70
  -9  14  -7  303.64   15.53
  -9  14   7  332.31   13.57
   9  14  -7  279.77   13.47
   9  14  -7  321.86   14.82
  -9  14   7  286.53   12.05
  14  -9  -7  315.55   14.64
  14  -9   7  319.67   16.81
 -14   9   7  314.21   16.03
  14   9  -7  295.79   13.72
  14   9  -9   96.40    5.96
 -14  10   0  267.94   15.29
 -14  10   0  288.67   15.09
 -10  14   0  248.63   14.41
  14  10   0  273.81   14.74
 -14  10   0  305.93   18.33
 -10  14  -2   33.51    5.72
 -10  14   2   42.71    6.45
 -14  10   2   45.71    5.85
  14  10  -2   32.99    5.10
  14  10  -2   33.05    4.53
  14  10   2   37.05    5.52
 -14  10  -2   34.30    4.89
 -14  10   2   29.73    4.58
 -10  14  -2   35.38    5.06
 -10  14   2   28.31    4.49
 -14  10   2   42.79    6.89
 -10  14   2   42.63    6.46
  10  14  -4  242.39   12.84
 -10  14   4  249.79   12.26
 -10  14  -4  254.14   13.81
  14  10  -4  254.94   13.34
 -10  14  -4  231.46   13.72
  14  10   4  254.57   14.44
 -14  10  -4  274.56   13.21
 -14  10   4  242.08   12.64
 -14  10   4  241.33   15.11
 -10  14  -4  242.42   12.87
 -10  14   4  250.38   12.87
 -10  14   4  245.68   14.24
  14  10  -6   15.22    2.94
 -14  10  -6   17.85    4.24
 -10  14  -6   16.18    3.68
 -10  14  -6   18.83    3.37
  14 -10  -6   19.02    3.71
  10  14  -6   18.59    3.62
 -10  14   6   16.64    2.63
  14  10  -6   17.45    3.95
  14 -10   6   16.02    4.20
 -10  14   6   20.25    3.64
  14  10  -8   76.13    5.52
 -10  14   8   73.84    4.40
  14  11  -1  209.53   11.86
 -11  14   1  254.52   14.22
 -14  11   1  266.19   14.09
 -14  11  -1  241.64   13.77
 -14  11  -1  236.80   13.01
 -14  11   1  225.97   12.85
 -11  14  -1  255.81   13.39
 -11  14   1  242.12   13.15
  14  11  -1  235.22   12.40
 -14  11   1  248.37   15.55
 -11  14   1  248.27   15.01
  14  11   1  235.79   13.03
 -11  14  -3    4.04    3.13
 -14  11  -3    9.72    3.74
  11  14  -3   11.85    2.91
 -11  14   3    8.70    2.81
  14  11  -3    9.76    3.18
  14  11  -3    9.61    2.97
 -11  14  -3    6.14    2.79
 -14  11  -3    9.47    2.83
 -14  11   3    9.35    2.88
 -11  14  -3    8.27    2.77
 -11  14   3    5.98    2.49
 -11  14   3    5.95    3.26
  14  11  -5  415.81   17.31
 -14  11  -5  433.88   20.34
 -11  14  -5  415.50   18.79
  11  14  -5  404.54   17.64
 -11  14   5  427.11   16.72
  14 -11  -5  475.20   18.01
 -14  11   5  409.32   16.03
  14  11  -5  461.32   18.97
 -11  14  -5  422.08   18.37
  14 -11   5  426.51   20.46
  11 -14   5  437.72   19.20
 -14  11  -5  401.19   16.78
 -11  14  -5  409.46   16.95
 -11  14   5  458.37   19.44
 -11  14  -7    0.74    1.60
  11  14  -7    1.12    1.87
  14  11  -7    2.16    2.09
 -11  14   7   -0.83    1.45
 -14  11  -7    0.41    1.86
 -14  11   7    1.46    1.91
 -12  14   0  822.30   31.37
 -14  12   0  850.35   31.42
 -14  12   0  820.80   30.66
 -12  14   0  777.91   30.39
  14  12   0  737.88   28.89
  14  12  -2   14.24    2.96
 -12  14   2   19.75    3.32
 -12  14   2   13.03    3.58
 -14  12   2   13.04    3.51
 -12  14  -2   19.08    3.79
 -14  12  -2   25.64    4.42
 -12  14   2    9.14    3.74
 -14  12  -2   19.37    3.44
 -14  12   2   20.04    3.53
 -12  14  -2   16.59    3.37
 -12  14   2   14.40    3.09
  12  14  -4  420.64   17.29
  14  12  -4  434.56   18.07
 -12  14   4  460.92   17.30
 -14  12   4  446.56   16.99
 -14  12  -4  450.33   18.89
 -14  12  -4  439.20   19.74
 -12  14  -4  376.10   17.99
 -14  12  -4  423.19   17.54
 -14  12   4  435.74   17.58
 -12  14  -4  480.10   18.13
 -12  14   4  437.39   17.66
 -14  12   4  472.07   20.55
 -12  14   4  454.49   19.74
 -12  14  -6   19.28    2.90
 -14  12  -6   19.92    3.01
  12  14  -6   18.78    2.68
  14  12  -6   19.70    2.96
 -14  12   6   18.46    3.34
 -13  14   1    7.80    2.92
 -14  13   1   13.61    3.27
 -13  14  -1    6.07    2.81
 -14  13  -1   10.06    3.02
 -14  13  -1    6.35    2.32
 -14  13   1    8.21    2.54
 -13  14  -1    7.50    2.44
 -13  14   1    9.39    2.68
 -13  14   3    3.01    1.78
 -14  13   3    0.49    1.70
 -13  14  -3    5.43    2.53
 -14  13  -3    6.54    2.58
 -13  14   3    0.89    2.40
 -14  13  -3    4.56    1.99
 -14  13   3    2.67    1.79
 -13  14  -3    3.68    1.90
 -13  14   3    4.20    1.86
 -14  13   3    3.32    2.75
  14  13  -5   48.35    3.82
 -13  14   5   56.48    3.34
 -14  13  -5   58.21    4.65
 -14  14   0   17.07    3.21
 -14  14   0   15.60    2.81
 -14  14   2  337.64   13.17
 -14  14  -2  335.06   14.26
 -14  14  -2  327.87   13.87
 -14  14   2  335.39   13.92
 -14  14   4   14.59    1.68
 -14  14  -4   14.15    2.48
   0  15  -1   52.33    5.60
  15   0   1   41.79    5.90
   0  15  -1   52.36    6.98
   0  15   1   48.53   11.37
  15   0  -1   50.58    6.33
   0  15   1   41.60    5.36
   0  15  -1   43.55    5.28
   0  15   1   49.12    5.87
  15   0   1   68.50   12.24
   0  15   3    2.08    4.50
   0  15  -3   -2.09    4.05
   0  15  -3    2.04    4.00
   0  15   3    0.54    3.31
   0  15  -3   -0.70    2.12
  15   0   3    9.31    6.74
  15   0   3    2.90    3.05
   0  15   3   -0.62    3.23
   0  15  -5  224.91   14.69
   0  15   5  256.49   13.75
   0  15   5  258.51   13.75
  15   0   5  263.64   16.27
  15   0   5  243.69   15.28
   0  15   5  216.53   13.88
   0  15   7   52.39    5.55
   0  15  -7   64.94    7.46
   0  15   7   45.54    5.21
   0  15  -7   44.48    6.79
  15   0  -7   49.84    7.28
  15   0   7   56.44    7.36
   0  15   7   48.06    6.01
   0  15  -9  380.12   16.88
   0  15   9  383.96   15.24
  15   0  -9  389.32   17.92
  15   0   9  378.98   18.14
   0  15   9  373.88   16.34
   1  15   0  463.54   20.22
  -1  15   0  456.13   20.33
   1  15   0  488.81   20.82
  -1  15   0  449.42   22.33
  -1  15   0  465.67   20.30
  15  -1   0  451.53   21.19
   1  15   0  508.14   36.72
  -1  15   0  418.66   34.37
  15   1   0  442.72   21.76
  -1  15  -2   84.28    8.50
   1  15   2   70.33    7.28
   1  15   2   62.06   13.13
   1  15  -2   75.04   13.94
  -1  15   2   73.28   13.38
  -1  15  -2  105.30   15.72
  -1  15   2   79.12    7.23
  15   1   2   82.23    8.26
   1  15  -2   77.41    6.56
  -1  15  -2   80.64    6.47
   1  15  -2   75.31    6.28
   1  15   2   75.51    7.04
  -1  15   2   88.81    7.66
  -1  15  -2   75.26    6.45
 -15   1   2   76.55   11.91
  15   1   2   79.57    7.78
  15  -1   2   80.19   14.24
  15   1   2   50.48   11.47
  15  -1  -2   82.76    7.92
  15   1  -2   82.54    8.23
  -1  15   2   83.73    8.14
  -1  15  -4  328.24   17.71
   1  15   4  310.51   16.03
   1  15  -4  280.72   17.14
   1  15   4  317.14   15.85
  -1  15   4  300.15   15.73
  15  -1   4  328.09   18.75
  15   1   4  304.40   17.44
  15  -1   4  331.26   30.20
  15   1   4  294.98   28.88
  15  -1   4  290.71   17.11
  15   1   4  332.69   18.66
 -15   1  -4  249.76   33.02
  -1  15   4  322.61   16.90
  -1  15  -6    8.46    4.46
   1  15   6   11.64    3.70
  -1  15   6   14.45    3.88
   1  15  -6   15.96    4.97
   1  15   6   16.23    3.98
  -1  15   6   13.26    3.62
  15   1  -6   12.67    4.68
  15  -1  -6    7.46    5.08
  15  -1   6    6.49    4.37
  15   1   6   15.67    4.58
  15   1   6    4.98    3.97
  -1  15   6    4.63    3.50
  -1  15   8   99.34    7.07
  -1  15  -8  130.71    9.20
   1  15   8  106.65    7.29
   1  15  -8  111.90    9.25
  15   1  -8  108.58    9.16
  15  -1  -8  127.80   10.07
  15  -1   8  116.89   10.02
  15   1   8  116.43    9.41
  -1  15   8  102.52    7.88
  15   1 -10   10.51    2.48
  15  -1 -10   11.70    3.08
  -1  15 -10    9.63    2.53
  -2  15   1   19.88    4.07
  -2  15  -1   26.98    5.22
   2  15  -1   23.19    5.24
   2  15  -1   17.41    3.84
  -2  15   1   15.35    6.74
   2  15   1   25.40    4.45
  15   2  -1   23.74    4.82
  15  -2  -1   22.27    4.57
  15   2   1   29.61    5.56
  15  -2   1   24.37    4.46
  -2  15  -1   28.22    4.17
   2  15  -1   26.23    4.03
   2  15   1   25.18    4.42
  -2  15   1   21.34    4.34
  -2  15  -1   23.71    4.08
  -2  15  -1   27.03    4.49
  15  -2   1   31.40    8.72
  15   2   1   26.11    8.03
 -15   2  -1   21.35   10.23
 -15   2   1   23.59    4.97
  -2  15   3   34.56    5.18
  -2  15  -3   33.14    6.11
   2  15  -3   43.86    6.51
  -2  15   3   22.81    7.84
  -2  15  -3   53.90   11.21
  15   2  -3   40.01    6.10
 -15   2   3   34.38    8.14
  -2  15  -3   38.77    4.41
  -2  15   3   35.49    5.31
  15  -2   3   33.66    9.99
  15   2   3   30.27    9.87
 -15   2  -3   17.41    9.58
 -15   2   3   36.37    6.18
  -2  15   3   35.56    5.75
   2  15   3   40.66    6.17
   2  15   5  197.75   11.89
  -2  15  -5  210.44   13.41
   2  15  -5  203.01   13.28
  -2  15   5  187.96   11.65
   2  15   5  203.33   11.82
   2  15  -5  188.28   13.35
  -2  15   5  206.44   11.96
  15   2  -5  205.17   13.75
  15  -2   5  216.89   15.03
  15   2   5  178.96   12.58
  15   2   5  197.95   13.84
  -2  15   5  203.58   12.58
   2  15   5  199.61   12.55
 -15   2  -5  188.85   11.59
 -15   2   5  189.54   11.55
  -2  15  -7   79.01    7.81
   2  15  -7   98.71    8.72
  -2  15   7   77.07    6.69
   2  15   7   90.34    7.24
   2  15  -7   70.98    8.02
  -2  15   7   83.95    6.64
  15   2  -7  101.69    8.89
  15  -2   7  104.76    9.95
  15   2   7   84.39    8.09
  -2  15   7   85.30    7.66
   2  15   7   92.23    7.80
  -2  15  -9  230.33   11.33
   2  15  -9  224.66   11.30
   2  15   9  201.76    9.62
  -2  15   9  206.22    9.74
   2  15  -9  210.54   11.86
  15   2  -9  218.30   11.35
  15   2  -9  201.91   10.94
  15  -2   9  211.95   12.66
  15   2   9  195.19   11.23
  -2  15   9  214.06   10.77
   2  15   9  232.57   11.00
   3  15   0  295.16   14.64
  -3  15   0  308.02   15.21
  -3  15   0  295.82   15.88
  -3  15   0  318.83   17.34
   3  15   0  324.88   17.45
  15   3   0  295.19   16.77
  -3  15   0  280.50   14.44
   3  15   0  318.79   15.62
  -3  15   0  239.27   25.04
 -15   3   0  293.48   17.09
  -3  15  -2  453.08   22.50
   3  15  -2  451.48   22.47
   3  15  -2  459.78   19.33
  15   3   2  486.79   23.45
   3  15  -2  483.20   20.65
  -3  15   2  480.70   21.14
  -3  15   2  475.42   35.31
  -3  15  -2  496.49   35.77
   3  15   2  463.93   21.49
   3  15   2  514.62   21.37
  -3  15  -2  472.83   20.13
  -3  15  -2  470.45   21.16
  15  -3   2  450.56   34.16
  15   3   2  441.67   34.78
 -15   3   2  487.62   23.76
 -15   3  -2  462.30   41.17
  15   3  -2  494.59   23.28
  15  -3  -2  500.53   21.47
  -3  15   2  471.38   22.01
   3  15  -4   63.74    7.31
  -3  15   4   71.23    6.88
   3  15   4   75.76    7.01
  -3  15  -4   73.36    8.03
   3  15  -4   85.04    8.51
   3  15   4   69.62    7.18
  15   3   4   69.36    8.36
  -3  15   4   71.49    7.36
   3  15   4   83.47    7.75
 -15   3  -4   71.77    6.93
 -15   3   4   60.21    6.55
   3  15  -6   72.09    7.66
  -3  15  -6   47.30    6.52
  -3  15   6   70.33    6.60
   3  15   6   71.48    6.75
   3  15  -6   62.24    7.48
  -3  15   6   64.06    6.25
  15   3  -6   67.26    7.41
  15  -3   6   85.18    9.50
  15   3   6   70.11    7.02
  15   3   6   62.36    7.89
  -3  15   6   75.73    7.14
   3  15   6   59.17    6.55
   3  15   8    5.79    2.35
  -3  15  -8    6.19    2.93
   3  15  -8    5.45    2.98
  -3  15   8    8.18    2.60
 -15   3  -8    3.77    3.59
   3  15  -8    3.71    3.25
  15   3  -8    5.85    3.17
  -3  15   8    4.98    2.27
  15   3   8    5.29    2.67
  15  -3   8   12.23    4.60
  -3  15   8    3.28    2.64
   3  15   8    6.95    2.83
  15  -3 -10   14.81    3.17
  -3  15 -10   15.37    2.39
   3  15 -10   17.09    2.58
  -4  15  -1   64.15    7.33
   4  15  -1   70.40    7.40
  -4  15   1   68.29   12.68
  -4  15  -1   62.68    5.73
   4  15  -1   58.49    5.60
  15   4   1   72.54    8.11
   4  15  -1   60.23    6.40
   4  15   1   59.85    6.10
  -4  15   1   64.72    6.28
   4  15   1   65.68    6.85
  -4  15   1   57.66    6.17
  -4  15  -1   71.53    6.45
  -4  15   1   48.29    6.53
  -4  15  -1   52.84    6.42
  15  -4   1   50.99   10.64
  15   4   1   70.28   12.65
  15   4  -1   57.80    7.60
  -4  15  -1   63.57    7.36
 -15   4   1   59.52    7.76
 -15   4  -1   47.51    7.30
  -4  15   3  216.33   12.84
  -4  15  -3  236.57   11.90
  -4  15  -3  227.32   13.07
  -4  15  -3  223.58   13.85
   4  15  -3  249.08   14.51
   4  15   3  234.09   12.96
  -4  15   3  252.56   13.32
  15   4   3  218.74   15.39
 -15   4   3  274.14   16.32
  15   4  -3  251.61   15.00
  -4  15   3  255.31   14.02
   4  15   3  227.60   13.57
 -15   4  -3  255.34   14.06
 -15   4   3  221.82   13.40
   4  15   5   15.49    3.72
  -4  15  -5   21.28    4.88
   4  15  -5   28.51    5.23
  -4  15   5   24.09    4.22
   4  15  -5   22.45    4.85
  15   4  -5   21.11    4.44
  -4  15   5   19.99    4.07
  -4  15  -5   19.81    3.50
  15  -4   5   15.64    5.27
  15   4   5    5.36    3.95
 -15   4  -5   20.49    3.75
 -15   4   5   14.50    3.44
  -4  15   5   17.24    4.04
   4  15   5   18.02    4.20
  -4  15  -7  357.12   16.80
   4  15  -7  344.46   16.73
  -4  15   7  337.55   15.54
   4  15   7  380.67   16.17
   4  15  -7  346.97   17.54
  15   4  -7  323.50   16.11
  -4  15   7  344.82   15.26
  15  -4  -7  346.70   19.39
  15  -4   7  359.85   19.59
  -4  15   7  336.53   16.07
   4  15   7  349.35   16.30
  -4  15   9   27.84    2.97
  -4  15  -9   24.88    3.33
   4  15  -9   25.80    3.45
   4  15  -9   24.49    3.98
  15  -4  -9   29.06    4.72
  15   4  -9   27.53    3.95
  15  -4   9   26.68    4.53
  -4  15   9   19.81    3.05
   4  15   9   24.94    3.18
  -5  15   0   70.34    6.63
  -5  15   0   63.76    7.32
  -5  15   0   44.34   10.59
  15   5   0   65.31    7.90
   5  15   0   57.06    6.29
  -5  15   0   63.33    5.95
  -5  15   0   73.73    7.65
 -15   5   0   69.74    8.36
 -15   5   0   73.91    7.30
  -5  15  -2  773.02   30.18
  -5  15   2  859.52   33.75
  -5  15  -2  805.24   32.23
  -5  15  -2  814.24   32.52
   5  15  -2  826.86   32.86
   5  15   2  795.71   31.71
   5  15   2  784.88   30.84
  -5  15   2  709.51   45.48
  -5  15  -2  858.11   48.40
  -5  15   2  799.19   30.91
 -15   5  -2  810.43   32.48
 -15   5   2  791.84   32.29
 -15   5   2  788.76   34.67
  15   5  -2  809.28   33.55
  -5  15  -2  792.85   32.72
  -5  15   2  802.90   32.80
  -5  15  -4    9.05    3.24
  -5  15   4   11.61    3.48
  -5  15  -4   10.97    2.57
   5  15   4    8.30    3.86
  -5  15  -4    8.19    3.85
   5  15  -4   14.84    4.32
  15   5  -4    6.48    3.87
  15   5   4   11.45    4.79
 -15   5  -4   11.68    3.18
 -15   5   4   12.64    3.27
  -5  15   4    7.50    3.36
   5  15   4   11.18    3.49
  -5  15  -6  250.41   13.16
   5  15  -6  246.40   13.29
   5  15   6  253.30   12.75
  -5  15   6  255.57   12.59
   5  15  -6  222.38   13.37
  -5  15   6  248.93   12.34
  15  -5  -6  232.44   15.33
  -5  15  -6  206.99   11.36
  15  -5   6  258.73   16.16
  -5  15   6  233.20   12.54
   5  15   6  237.19   12.66
  15   5   6  214.36   14.40
   5  15  -8   14.46    3.53
  15  -5  -8   21.41    4.77
  -5  15   8   19.07    2.53
  15   5  -8   19.71    4.11
  -5  15  -8   22.51    3.38
   5  15  -8   20.94    3.45
  15   5  -8   15.13    3.41
 -15   5  -8   11.64    3.93
  -5  15   8   15.89    2.95
  -5  15   8   14.63    2.98
   5  15   8   19.70    3.14
  15  -5 -10   38.33    3.56
  -6  15  -1  110.90    7.98
  -6  15   1  100.10    9.30
  -6  15  -1   89.91    8.58
   6  15  -1  112.82    9.01
  15   6  -1  108.31    9.59
  15   6   1  100.60    9.56
   6  15   1   92.16    8.10
  -6  15  -1   93.94    6.90
  -6  15   1  108.43    7.65
 -15   6  -1  106.13    8.70
  -6  15  -1  107.41    8.92
 -15   6   1   94.16    9.86
 -15   6  -1  113.51   10.84
   6  15  -3  134.46    9.74
  -6  15   3  148.12    9.95
  -6  15  -3  162.36    9.21
  -6  15  -3  157.44   10.62
  -6  15  -3  148.75   10.18
   6  15  -3  152.93   10.51
 -15   6  -3  153.95   10.45
 -15   6   3  158.11   10.50
  15   6   3  154.98   12.04
 -15   6   3  165.77   12.55
  -6  15  -3  164.08   10.86
  -6  15   3  160.34   10.85
   6  15   5   -1.40    2.86
  -6  15  -5    3.20    2.79
   6  15  -5    1.94    2.88
  -6  15   5    0.43    2.86
  -6  15  -5    1.37    2.46
   6  15  -5    1.96    2.64
  -6  15   5    1.71    2.51
  15  -6   5    0.82    3.96
 -15   6  -5    1.33    2.05
 -15   6   5    0.43    1.97
  15   6   5    0.70    3.39
  -6  15   5   -0.42    2.65
   6  15   5    0.43    2.56
   6  15  -7  326.04   16.01
  -6  15   7  345.02   14.44
  15  -6  -7  330.39   17.44
  -6  15  -7  354.78   15.18
   6  15  -7  358.18   15.50
  -6  15   7  356.88   15.14
  15   6  -7  358.55   16.55
  -6  15   7  323.70   14.67
   6  15   7  351.90   15.01
  -6  15   9   46.15    3.32
   6  15  -9   36.58    3.80
  15  -6  -9   42.38    4.46
  15   6  -9   45.49    4.27
  15  -6   9   40.24    4.75
  -7  15   0  104.61    8.01
  -7  15   0  109.85    9.41
 -15   7   0  117.11    9.03
  15   7   0  106.54    9.64
  -7  15   0  116.87    7.74
 -15   7   0  121.49    9.31
  -7  15   0  126.35    9.52
 -15   7   0  107.57   10.46
  -7  15   2  364.81   16.76
  -7  15  -2  343.91   15.85
  -7  15   2  321.96   17.88
 -15   7   2  358.64   16.76
  -7  15  -2  353.81   17.76
  -7  15  -2  340.01   16.51
   7  15  -2  339.95   16.65
 -15   7  -2  340.19   17.29
 -15   7   2  352.05   17.44
  15   7   2  336.83   18.75
 -15   7   2  332.98   19.18
  -7  15  -2  355.97   17.81
  -7  15   2  345.90   17.51
  -7  15   2  348.51   18.02
  -7  15  -4   32.72    5.04
  -7  15  -4   49.28    4.46
   7  15  -4   46.13    5.64
  -7  15   4   45.34    5.24
  -7  15  -4   31.53    4.64
   7  15  -4   41.08    5.26
  15   7  -4   46.13    5.97
 -15   7  -4   46.35    5.52
 -15   7   4   56.54    5.72
  15   7   4   51.82    6.84
 -15   7   4   45.15    6.73
   7  15  -6   91.67    7.02
  -7  15   6   96.92    6.59
  15  -7  -6   88.28    8.28
  -7  15  -6   92.00    6.82
  -7  15  -6   88.45    6.36
   7  15  -6   71.95    6.16
  -7  15   6   98.96    6.86
 -15   7   6   97.77    8.70
  15   7  -6   90.45    7.41
  -7  15   8    1.91    1.76
  15   7  -8    2.14    1.85
 -15   7  -8    1.44    2.46
   7  15  -8    0.59    1.86
  15  -7  -8   -1.14    2.89
  15   7  -8   -0.39    2.58
  15  -7   8    3.04    2.68
 -15   7   8    0.44    2.28
 -15   8  -1   23.83    4.83
  -8  15  -1   31.63    4.35
  -8  15   1   22.10    5.12
 -15   8   1   19.72    4.23
  -8  15  -1   24.77    4.79
  -8  15  -1   27.24    3.31
  15   8  -1   28.29    5.28
 -15   8  -1   26.69    5.79
  15   8   1   25.34    4.92
 -15   8  -1   20.59    4.16
  -8  15  -1   17.50    4.07
 -15   8   1   19.15    5.28
  -8  15  -3   18.80    4.27
   8  15  -3   21.74    3.71
  -8  15   3   13.78    3.61
  -8  15  -3   18.38    3.31
  15   8  -3   13.59    4.09
  15   8   3   19.62    4.88
 -15   8  -3   12.37    3.10
 -15   8   3   12.23    3.44
  -8  15  -3   19.07    3.98
  -8  15   3   10.66    3.67
 -15   8   3   14.68    4.73
  -8  15   3   14.76    3.98
   8  15  -5  166.02    8.93
  -8  15  -5  144.26   10.08
   8  15  -5  158.86    9.92
  -8  15   5  181.06    9.51
  -8  15  -5  172.96   10.19
  15  -8   5  158.46   12.00
 -15   8  -5  180.41    9.63
 -15   8   5  159.92    9.25
 -15   8   5  170.18   11.76
  15   8  -5  160.46   10.25
 -15   8  -7   77.50    7.41
  -8  15   7   78.51    5.33
  -8  15   7   70.43    4.50
  15  -8  -7   77.41    6.39
  15   8  -7   81.37    6.81
  -8  15  -7   63.83    4.83
  15  -8   7   73.74    7.28
 -15   8   7   72.29    6.80
  15   8  -7   70.13    5.65
  15   8  -9  196.65    8.64
  -9  15   0  644.19   25.93
  -9  15   0  678.22   28.20
 -15   9   0  695.04   27.74
  -9  15   0  667.32   24.79
 -15   9   0  678.22   27.55
  15   9   0  671.03   27.84
  -9  15   0  657.30   27.55
 -15   9   0  652.92   30.26
 -15   9  -2   30.13    5.09
  -9  15   2   25.44    4.21
  -9  15  -2   24.13    3.82
 -15   9   2   24.58    4.32
  -9  15  -2   22.01    4.64
  15   9  -2   30.79    4.93
  -9  15   2   31.57    5.17
  15   9  -2   23.11    4.13
  15   9   2   30.62    5.11
 -15   9  -2   21.11    4.15
 -15   9   2   22.56    4.12
  -9  15  -2   22.33    4.34
  -9  15   2   21.08    4.04
 -15   9   2   22.68    5.25
   9  15  -4  279.64   13.64
  -9  15   4  277.37   13.26
  -9  15  -4  295.56   12.45
  -9  15  -4  305.39   14.75
  15   9  -4  278.62   14.38
 -15   9  -4  290.96   13.92
 -15   9   4  302.74   13.98
 -15   9   4  314.46   16.68
  -9  15  -4  288.56   14.19
  -9  15   4  288.44   14.10
  -9  15   4  276.81   14.69
  15   9   4  283.08   15.45
  -9  15   6   11.84    2.60
  15   9  -6    8.45    2.54
  -9  15  -6    6.15    2.38
  15  -9  -6    7.96    2.94
  -9  15   6    8.17    2.13
  15   9  -6   13.86    3.60
  15  -9   6   12.57    3.83
 -15   9   6   10.84    3.36
  15   9  -8  116.52    6.74
  -9  15   8  118.55    5.71
 -10  15   1  148.77    9.05
 -15  10   1  160.45   10.06
 -10  15  -1  159.31   10.32
 -15  10  -1  189.11   10.90
 -15  10  -1  158.67   10.01
 -15  10   1  144.64    9.65
  15  10  -1  153.54    9.75
 -10  15  -1  160.71   10.17
 -10  15   1  147.84    9.81
  15  10   1  155.63   10.20
 -15  10   1  161.46   12.22
 -15  10  -3    8.50    3.63
 -10  15   3    9.74    2.80
 -10  15  -3    7.94    2.39
 -10  15  -3   11.58    3.51
  15  10  -3    8.11    3.03
 -10  15   3   13.89    3.66
  15  10  -3    6.14    2.46
 -15  10  -3   11.85    3.04
 -15  10   3    7.26    2.69
 -10  15  -3    7.19    2.66
 -10  15   3    6.63    2.64
  15  10   3   11.66    3.51
 -15  10   3   12.04    4.38
  15  10  -5  364.13   15.29
  10  15  -5  334.30   14.66
 -10  15   5  373.46   14.37
  15  10  -5  335.67   15.75
  15 -10  -5  331.26   15.23
 -10  15  -5  335.14   15.14
  15 -10   5  343.26   17.32
 -15  10   5  356.11   17.17
 -10  15   5  336.75   15.30
 -10  15  -7    0.36    1.29
 -10  15   7    3.41    1.33
 -15  11   0  564.41   22.97
 -11  15   0  529.08   19.84
 -15  11   0  563.98   22.84
 -11  15   0  589.75   23.22
  15  11   0  558.09   22.24
  15  11  -2   59.76    5.33
 -11  15   2   59.19    5.02
 -11  15  -2   51.45    4.60
 -15  11   2   61.67    5.58
 -11  15  -2   61.26    5.98
 -15  11  -2   65.04    6.07
 -15  11  -2   56.18    5.37
 -15  11   2   52.79    5.27
 -11  15  -2   60.75    5.59
 -11  15   2   54.16    5.50
 -15  11   2   64.09    7.04
  15  11   2   59.41    5.75
  15  11  -4  304.08   13.70
 -11  15   4  290.76   12.49
 -11  15  -4  294.75   11.74
 -15  11   4  303.60   12.19
  15 -11  -4  299.34   13.15
 -11  15  -4  321.98   14.08
 -15  11  -4  306.05   13.98
  15  11  -4  302.47   13.23
 -15  11  -4  288.18   12.85
 -15  11   4  280.33   12.70
 -11  15  -4  296.74   13.11
 -15  11   4  324.08   15.63
 -11  15   4  262.79   13.69
 -15  11  -6    1.07    1.68
  15  11  -6    3.79    1.90
 -11  15  -6    1.81    1.54
 -11  15   6    0.59    1.42
 -12  15   1    1.72    1.84
 -12  15  -1    0.56    1.94
 -12  15   1    0.79    2.39
 -15  12   1    3.26    2.45
 -15  12  -1    1.51    2.24
 -12  15   1    1.00    1.31
 -15  12  -1    0.72    1.82
 -15  12   1    0.72    1.82
 -12  15  -1    3.69    2.17
 -12  15   1    2.95    2.11
 -12  15   3    6.86    2.04
 -12  15  -3    5.85    1.80
 -15  12   3    9.61    2.21
 -12  15  -3    6.17    2.64
 -15  12  -3   13.40    2.96
 -15  12  -3   10.50    2.92
 -15  12  -3    6.13    2.07
 -15  12   3    8.53    2.18
 -12  15  -3    8.11    2.30
 -12  15   3    7.92    2.21
  15  12  -5   26.12    2.94
 -12  15   5   33.04    2.56
 -12  15  -5   28.81    3.19
 -15  12  -5   26.25    3.20
 -12  15   5   34.64    2.95
 -13  15   0    8.29    2.47
 -15  13   0    4.84    2.08
 -15  13   0    6.69    2.11
 -13  15   0    6.51    2.04
 -13  15   2  366.78   14.03
 -13  15  -2  365.19   13.84
 -15  13   2  366.30   13.95
 -13  15  -2  347.06   14.90
 -15  13  -2  376.79   15.13
 -13  15   2  343.59   13.17
 -15  13  -2  372.66   14.78
 -15  13   2  368.53   14.75
 -13  15  -2  358.94   14.75
 -13  15   2  374.57   14.87
 -13  15   4    1.09    0.98
 -15  13  -4    1.09    0.93
 -15  13  -4    2.54    1.61
 -13  15   4    2.28    1.17
 -14  15   1   75.15    4.27
 -14  15  -1   71.83    4.15
 -15  14   1   66.27    4.10
 -14  15  -1   66.47    4.61
 -15  14  -1   73.22    4.72
 -14  15  -3  281.33   11.31
 -15  14  -3  294.37   11.36
   0  16   0 1093.95   40.65
   0  16   0 1128.08   40.71
   0  16   0 1141.30   43.45
  16   0   0 1137.14   42.40
   0  16   0 1110.91   60.07
   0  16  -2  122.90    9.88
   0  16   2  123.59    8.96
   0  16  -2  108.05    7.52
   0  16   2  137.17    9.26
  16   0   2  108.92    9.12
  16   0  -2  102.43    8.93
   0  16  -4 1075.98   39.98
   0  16   4 1013.05   37.84
  16   0   4  962.15   39.53
  16   0  -4 1031.46   39.38
  16   0   4 1033.07   40.07
   0  16   4 1018.05   38.91
   0  16   6   51.61    5.59
   0  16  -6   58.01    6.62
   0  16   6   61.42    5.85
  16   0  -6   58.27    7.27
  16   0   6   48.13    6.34
   0  16   6   57.47    6.04
  16   0   6   55.56    6.05
   0  16  -8  589.01   23.66
   0  16   8  604.91   22.61
  16   0  -8  621.75   24.90
  16   0   8  625.30   24.84
   0  16   8  600.75   23.31
   0  16 -10   97.27    5.07
   1  16  -1  538.32   21.88
   1  16   1  550.06   22.74
  -1  16  -1  542.74   22.17
  -1  16   1  524.33   22.62
  -1  16  -1  566.63   22.14
   1  16   1  541.98   22.83
  -1  16  -1  532.64   24.59
  -1  16   1  531.52   22.55
  16   1   1  523.73   24.02
  16  -1   1  510.32   22.91
   1  16  -1  522.32   22.05
  16   1  -1  508.07   23.81
  16  -1  -1  529.64   23.33
  -1  16  -3   22.92    5.21
  16   1  -3   16.97    4.45
  16  -1  -3   16.80    4.12
   1  16   3   19.09    4.29
  -1  16   3   24.25    4.48
  -1  16  -3   12.25    2.71
  16  -1   3   23.35    5.21
  16  -1   3   16.20    4.23
  16   1   3    9.16    4.23
  -1  16   3   24.81    4.84
   1  16   5  786.03   30.42
  -1  16  -5  781.52   31.62
  -1  16   5  788.38   30.30
   1  16   5  784.17   30.05
  -1  16   5  811.12   30.28
  16   1  -5  818.81   33.08
  16  -1   5  782.06   32.95
  16   1   5  742.88   31.26
  16   1   5  762.07   32.02
  16  -1   5  749.24   30.58
  -1  16   5  752.25   30.62
 -16   1  -5  783.43   30.05
 -16   1   5  759.96   29.82
  -1  16  -7    6.03    3.30
   1  16   7    4.05    2.52
  -1  16   7    8.74    2.88
  16   1  -7    1.61    3.56
  16  -1  -7    6.51    3.71
  -1  16   7    3.37    2.31
  16  -1   7    7.10    3.43
  16   1   7    8.40    3.28
  -1  16   7    2.55    2.63
  16   1  -9  480.81   17.89
  16  -1  -9  469.87   18.47
  -1  16  -9  473.93   17.54
   1  16   9  406.60   15.87
  -1  16   9  421.24   16.04
  -1  16   9  455.21   17.15
  16   1  -9  465.24   17.74
   2  16   0  486.08   20.72
  -2  16   0  482.87   21.01
   2  16   0  499.93   23.39
  -2  16   0  484.08   20.63
  16   2   0  498.37   22.92
   2  16   0  486.43   21.19
   2  16   2  116.55    8.34
  -2  16  -2  107.36    7.40
  -2  16   2  104.75    8.17
  -2  16  -2  108.72    9.32
   2  16  -2  117.55    9.62
  -2  16   2   99.92    7.96
   2  16  -2   87.90    6.58
   2  16  -2  100.85    7.40
   2  16   2  105.57    8.33
  16   2  -2  109.89    9.09
 -16   2   2  101.77    8.90
  16  -2  -2   89.90    7.80
   2  16   4  317.04   15.31
  -2  16  -4  309.68   16.42
   2  16  -4  286.23   16.16
  -2  16   4  290.76   14.97
  16  -2   4  288.34   17.33
  16  -2  -4  325.34   15.93
  16   2  -4  317.88   16.81
 -16   2   4  314.43   16.78
  16   2   4  306.94   17.30
  16  -2   4  294.41   15.50
  -2  16   4  307.05   15.86
   2  16   4  311.22   16.00
 -16   2  -4  294.99   15.44
 -16   2   4  320.39   15.79
  -2  16  -6   21.04    4.44
   2  16  -6   19.14    4.72
   2  16   6   22.81    4.15
  -2  16   6   25.93    4.09
  16   2  -6   32.85    5.36
  -2  16   6   27.98    4.06
  16  -2  -6   27.33    5.92
  16  -2   6   23.90    5.45
  16   2   6   24.21    4.65
  -2  16   6   20.55    3.95
   2  16   6   28.69    4.51
  -2  16   8   46.81    4.34
  -2  16  -8   52.84    4.92
   2  16  -8   45.81    4.69
   2  16   8   42.14    4.18
  16   2  -8   42.36    4.86
  16  -2  -8   49.45    5.85
  16  -2   8   51.02    5.77
  -2  16   8   46.60    4.58
   2  16   8   47.25    4.50
  -3  16   1   72.18    6.89
  -3  16  -1   80.99    6.81
  -3  16  -1   71.91    6.81
  -3  16  -1   73.97    8.01
   3  16  -1   86.28    8.40
   3  16  -1   88.70    6.63
  -3  16  -1   85.42    6.55
  -3  16   1   87.72    7.00
  16   3   1   88.22    8.32
   3  16  -1   75.65    6.88
   3  16   1   82.64    7.24
   3  16   1   85.53    7.13
 -16   3   1   69.82    7.68
  16   3  -1   93.59    8.41
  -3  16   3  141.91    9.82
  -3  16  -3  159.97    8.94
  -3  16  -3  161.34   11.13
   3  16  -3  159.18   11.33
   3  16   3  166.99   10.27
  -3  16   3  169.16   10.40
  16  -3   3  151.43   10.34
  16   3   3  165.24   12.22
 -16   3   3  147.71   11.22
  16   3  -3  178.20   11.67
  16  -3  -3  171.47   10.20
 -16   3  -3  157.30   10.57
 -16   3   3  164.16   10.71
  -3  16   5   -0.43    2.66
  -3  16  -5   -1.05    3.30
   3  16  -5    1.61    3.24
   3  16   5    0.46    2.82
  16  -3  -5    2.22    2.35
  16   3  -5    1.15    3.05
   3  16   5    0.86    2.85
  16   3  -5   -1.10    3.01
  -3  16   5   -0.43    2.73
  16  -3   5    2.21    3.70
 -16   3  -5    0.44    2.25
 -16   3   5    3.89    2.17
  16   3   5   -1.96    3.40
 -16   3   5    0.62    3.06
  -3  16   5   -0.48    2.62
   3  16   5    0.49    2.66
  -3  16  -7  326.13   15.20
   3  16  -7  324.00   15.29
  -3  16   7  314.85   14.25
  -3  16   7  323.36   13.95
   3  16   7  324.76   14.51
  16   3  -7  338.50   15.33
  16  -3   7  325.37   17.25
  -3  16   7  307.99   14.64
   3  16   7  337.68   15.02
  16   3  -7  324.20   15.77
  16   3  -9    5.08    1.55
  -3  16  -9    5.06    1.91
   3  16  -9    7.21    2.11
  -3  16   9   10.18    1.68
   4  16   0    0.41    2.48
  -4  16   0    1.37    2.68
  -4  16   0    2.14    2.69
   4  16   0    4.36    3.24
  16   4   0    1.30    3.20
  -4  16   0    4.86    2.51
 -16   4   0    8.40    3.01
 -16   4   0    3.45    3.47
  -4  16  -2 1116.97   40.17
  -4  16  -2 1109.29   41.23
  -4  16  -2 1136.91   42.74
   4  16  -2 1175.38   43.20
   4  16   2 1132.51   41.13
  -4  16   2 1155.34   41.13
   4  16   2 1186.04   42.17
 -16   4   2 1110.35   42.47
 -16   4   2 1155.95   44.30
  16   4  -2 1136.14   43.39
 -16   4  -2 1122.35   42.53
   4  16   4    3.40    3.18
  -4  16  -4    7.83    3.43
   4  16  -4    3.77    3.17
  16   4  -4    5.86    3.16
  16   4  -4    6.36    3.21
  -4  16   4    7.59    3.12
  16  -4   4    6.05    4.33
  16   4   4    2.07    3.06
 -16   4  -4    5.44    2.75
 -16   4   4    5.86    3.06
 -16   4   4   11.08    4.18
  -4  16   4    9.00    3.30
  -4  16  -6  480.39   20.06
   4  16  -6  466.80   20.11
  -4  16   6  454.83   19.10
   4  16   6  468.23   19.47
   4  16  -6  434.21   19.89
  16   4  -6  461.53   19.34
  -4  16   6  461.26   18.90
  16  -4  -6  493.95   22.65
  16  -4   6  487.63   22.80
  16   4   6  452.77   21.27
  16   4  -6  447.64   20.46
 -16   4   6  443.84   21.05
  -4  16   6  468.85   19.54
   4  16   6  451.26   19.41
  -4  16   8  153.25    7.45
  -4  16  -8  135.74    7.50
   4  16  -8  132.29    7.60
  16  -4  -8  131.92    8.93
  16   4  -8  133.62    8.39
  16  -4   8  129.70    9.10
 -16   4   8  121.13    8.31
  16   4  -8  123.62    7.83
  -4  16   8  126.18    7.23
   4  16   8  139.20    7.43
  -5  16   1  170.71   10.47
  -5  16  -1  175.86   10.31
  -5  16   1  184.78   11.78
  -5  16  -1  168.87   11.07
  -5  16  -1  164.64    9.36
  16   5  -1  177.93   12.12
  16   5   1  195.47   12.65
  -5  16   1  181.42   10.32
   5  16   1  191.39   11.32
 -16   5  -1  184.48   11.70
 -16   5   1  181.16   12.70
 -16   5  -1  189.78   12.96
  -5  16   3  441.68   19.42
  -5  16  -3  444.55   18.02
  -5  16  -3  428.04   19.24
  -5  16  -3  433.59   19.96
   5  16  -3  434.28   20.18
  -5  16   3  459.16   19.38
 -16   5  -3  451.92   20.24
 -16   5   3  441.83   20.05
  16   5   3  462.11   22.45
 -16   5   3  433.64   21.71
  16   5  -3  447.37   21.04
   5  16   5   18.13    3.91
  -5  16  -5   22.73    4.26
   5  16  -5   26.89    4.46
  16   5  -5   23.57    4.48
  -5  16   5   18.73    3.61
  16  -5   5   23.50    5.45
 -16   5  -5   16.39    3.21
 -16   5   5   22.50    3.48
  16   5   5   21.90    4.83
 -16   5   5    8.42    3.53
  -5  16  -7  490.71   19.03
   5  16  -7  481.48   19.20
  -5  16   7  502.14   18.99
 -16   5  -7  480.39   21.90
  -5  16   7  471.63   18.12
  16  -5  -7  469.62   21.28
  16  -5   7  476.56   21.89
 -16   5   7  501.37   21.04
  -5  16   7  456.17   18.56
  16  -5  -9    0.75    1.67
  -6  16   0   47.76    5.28
  -6  16   0   53.05    6.29
  -6  16   0   53.61    5.05
  16   6   0   51.39    6.53
 -16   6   0   52.48    6.01
  -6  16   0   46.59    6.03
 -16   6   0   64.61    7.81
  -6  16  -2  337.86   15.00
  -6  16  -2  329.21   16.24
   6  16  -2  331.91   16.36
  16   6  -2  352.20   17.55
   6  16   2  330.92   16.13
  -6  16   2  340.10   15.43
 -16   6  -2  324.17   16.41
 -16   6   2  333.80   16.62
 -16   6   2  293.13   17.61
  -6  16   4   29.67    4.28
  -6  16  -4   25.39    3.08
  -6  16  -4   31.72    4.35
   6  16   4   31.04    4.58
  -6  16  -4   25.31    4.18
   6  16  -4   36.49    4.95
  -6  16   4   27.56    4.12
  16   6   4   16.66    4.42
 -16   6  -4   29.03    4.27
 -16   6   4   30.73    4.31
 -16   6   4   32.63    5.49
  -6  16  -6  133.25    8.00
   6  16  -6  140.43    8.39
  -6  16   6  160.72    8.57
  -6  16   6  144.65    8.07
  16  -6  -6  145.33   10.22
  16  -6   6  139.31   10.55
 -16   6   6  161.17   10.34
  16  -6  -8    3.91    2.48
  16   6  -8    1.57    2.16
   6  16  -8   -1.62    1.51
  -6  16   8    1.20    1.52
  -7  16  -1  106.89    7.43
  -7  16   1  110.35    8.71
  -7  16  -1  105.80    8.36
 -16   7  -1   99.59    7.83
  16   7  -1  106.62    9.04
  -7  16   1   99.33    6.97
 -16   7  -1  103.64    8.18
  16   7   1  102.86    8.99
  -7  16  -1  105.65    8.55
 -16   7   1   98.72    9.25
  -7  16   3   29.13    4.14
  -7  16  -3   30.68    3.69
  -7  16  -3   21.23    4.06
  -7  16   3   29.28    4.14
 -16   7  -3   21.31    3.98
 -16   7   3   28.31    4.17
 -16   7   3   21.92    4.93
  -7  16  -5  295.19   13.20
   7  16  -5  298.45   13.54
  -7  16   5  328.93   13.92
  -7  16  -5  295.79   13.55
  16  -7   5  328.26   17.19
  16   7   5  323.77   16.31
 -16   7  -5  305.31   13.67
  16   7  -5  341.68   15.43
 -16   7   5  297.90   13.44
 -16   7   5  291.87   15.82
  -7  16   7   33.48    2.88
  16  -7  -7   32.75    4.27
  16   7  -7   44.01    4.82
  -7  16   7   41.44    3.62
 -16   7  -7   31.80    4.51
  16   7  -7   36.37    3.85
 -16   7   7   33.52    4.39
  -8  16   0  795.96   29.49
  -8  16   0  792.77   31.02
 -16   8   0  799.77   30.01
  -8  16   0  775.73   27.99
 -16   8   0  769.67   30.73
  16   8   0  769.73   31.37
  -8  16   0  793.17   31.16
 -16   8   0  795.72   33.30
 -16   8  -2    9.05    2.95
  -8  16   2    7.27    2.88
  -8  16  -2    7.34    2.39
  -8  16  -2   10.76    3.34
  -8  16   2   11.26    2.75
  16   8  -2   10.96    3.61
  16   8   2    3.42    2.83
 -16   8  -2   14.36    3.36
 -16   8   2   13.32    3.24
  -8  16  -2   13.60    3.40
  -8  16   2   10.09    3.16
 -16   8   2    9.79    3.90
  -8  16   4  604.71   23.14
  -8  16  -4  583.52   21.49
  -8  16  -4  606.68   23.81
  16   8  -4  616.93   24.69
  -8  16   4  644.89   23.37
 -16   8  -4  617.44   23.69
 -16   8   4  597.93   23.47
 -16   8   4  610.17   26.09
  -8  16   6   28.32    2.97
  16  -8  -6   22.75    3.83
  -8  16  -6   23.00    2.70
  -8  16   6   21.66    2.95
  16   8  -6   22.31    3.30
 -16   8  -6   28.45    4.67
 -16   8   6   26.41    4.03
  16   8  -8  259.25   10.51
  -8  16   8  242.17    9.31
  -9  16  -1  329.01   14.72
  -9  16   1  364.75   16.77
 -16   9   1  337.04   15.29
  -9  16  -1  328.75   16.07
 -16   9  -1  368.72   16.16
  -9  16   1  353.43   14.32
 -16   9  -1  340.07   16.07
 -16   9   1  355.51   16.23
  16   9  -1  339.79   16.21
  -9  16  -1  338.56   16.28
  -9  16   1  308.53   15.88
  16   9   1  361.61   16.97
 -16   9   1  330.35   17.86
  -9  16   3   87.92    6.20
  -9  16  -3   79.11    5.40
  -9  16  -3   86.98    6.78
 -16   9  -3   81.83    6.59
  16   9  -3   77.05    6.64
  -9  16   3   93.03    6.14
  16   9  -3   88.25    6.50
 -16   9  -3   88.67    6.54
 -16   9   3   80.61    6.28
 -16   9   3   96.48    8.33
  16   9   3   94.81    7.63
  16   9  -5  538.25   20.82
  -9  16   5  534.90   19.54
  16   9  -5  528.08   21.45
  16  -9  -5  511.88   20.96
  -9  16  -5  515.99   19.99
  16  -9   5  545.16   22.97
 -16   9   5  529.65   22.26
  -9  16   7   12.58    1.84
 -10  16   0  651.74   24.30
 -10  16   0  642.55   25.67
 -16  10   0  644.33   24.95
 -16  10   0  644.01   25.42
 -10  16   0  660.91   25.79
  16  10   0  666.81   25.57
 -10  16   2   20.22    3.22
 -10  16  -2   16.51    2.81
  16  10  -2   14.41    3.14
 -10  16  -2   15.63    3.29
 -16  10  -2   13.80    3.30
 -10  16   2   21.61    2.87
  16  10  -2   16.70    2.97
 -16  10  -2   16.31    3.00
 -16  10   2   16.85    3.03
 -10  16  -2   15.43    3.27
 -10  16   2   17.92    3.23
  16  10   2   23.59    3.70
 -16  10   2   16.58    3.99
  16  10  -4  443.29   17.55
 -10  16   4  445.18   16.61
 -10  16   4  446.73   16.58
  16  10  -4  431.33   17.69
 -16  10   4  402.51   15.47
  16 -10  -4  417.73   17.37
 -10  16  -4  433.95   17.33
 -16  10  -4  419.37   17.46
  16 -10   4  433.77   19.42
 -16  10  -4  429.29   16.79
 -16  10   4  435.96   19.23
 -16  10  -6    3.90    1.72
  16  10  -6    2.46    1.86
 -11  16  -1    0.25    1.78
 -16  11   1    1.76    1.92
 -11  16  -1    1.43    2.26
 -16  11  -1    5.84    2.51
 -11  16   1    1.39    1.18
 -16  11  -1   -1.03    1.78
 -16  11   1    1.70    1.77
 -11  16  -1    1.06    1.99
 -11  16   1    1.41    1.80
  16  11   1    4.49    1.96
 -11  16   3   28.75    3.07
 -11  16  -3   27.32    2.59
  16  11  -3   23.35    2.98
 -16  11   3   23.70    2.62
  16 -11  -3   27.30    3.17
 -11  16  -3   23.10    3.32
 -16  11  -3   27.42    3.52
 -11  16   3   24.41    2.78
 -16  11  -3   27.29    3.15
 -16  11   3   23.77    2.93
 -16  11   3   23.28    4.03
 -11  16   5   24.57    2.20
  16  11  -5   24.43    2.70
 -11  16  -5   22.57    2.44
 -16  11  -5   29.04    2.92
 -11  16   5   26.45    2.50
 -16  12   0    0.25    1.58
 -16  12   0    0.57    1.39
 -12  16   0    0.60    1.41
 -12  16   2  412.65   15.15
 -12  16  -2  402.95   14.71
 -16  12   2  395.72   14.81
 -12  16  -2  417.67   16.07
 -16  12  -2  420.36   15.86
 -12  16   2  362.34   13.98
 -16  12  -2  436.85   15.93
 -12  16   4   -0.65    1.05
 -12  16  -4    1.34    1.20
 -16  12  -4   -0.20    1.15
 -12  16   4    1.08    0.93
 -13  16   1   96.53    4.94
 -13  16  -1  100.09    4.92
 -16  13   1   93.36    4.85
 -16  13  -1   91.17    5.13
 -13  16  -3  404.71   14.68
   0  17  -1  431.59   17.79
   0  17   1  414.19   18.32
   0  17  -1  429.88   20.35
  17   0  -1  398.12   19.02
   0  17  -1  406.54   17.48
   0  17   1  413.05   18.28
   0  17  -3   31.95    5.40
  17   0  -3   26.46    4.49
   0  17   3   33.52    4.74
  17   0   3   32.63    5.12
   0  17   5  813.59   29.96
   0  17  -5  818.61   31.03
   0  17   5  805.35   29.63
  17   0  -5  836.40   32.33
  17   0   5  744.96   30.42
 -17   0   5  781.68   29.21
  17   0  -5  827.17   30.72
  17   0   5  770.85   30.28
   0  17   5  802.37   30.34
 -17   0  -5  754.52   29.18
  17   0  -7   -0.42    2.71
   0  17  -7    4.26    2.43
   0  17   7    4.37    2.01
  17   0  -7    1.01    1.93
   0  17   7    0.65    2.00
   0  17  -9  588.10   20.37
  17   1   0  632.15   26.49
  17  -1   0  592.69   25.14
   1  17   0  628.03   24.85
  -1  17   0  638.04   24.66
   1  17   0  642.63   24.78
  -1  17   0  628.17   24.87
  -1  17  -2    1.70    3.59
   1  17   2    0.46    2.78
  17   1  -2    0.53    2.71
  17  -1  -2    1.89    2.42
  -1  17   2    7.02    3.14
   1  17  -2    2.42    2.01
   1  17   2    3.90    2.68
  -1  17  -2    2.93    2.31
  -1  17   2    1.32    2.72
  17  -1   2    1.06    2.72
  -1  17  -4  555.62   23.76
   1  17   4  547.44   22.40
  -1  17   4  571.17   22.63
  17  -1   4  545.71   23.97
  17  -1  -4  545.39   22.83
  17   1   4  590.13   24.44
  17  -1   4  528.43   22.94
  17   1  -4  555.47   23.50
 -17   1  -4  546.00   22.85
 -17   1   4  535.86   22.69
  -1  17  -6    5.47    2.91
   1  17   6    5.64    2.62
  -1  17   6    3.46    2.39
  17   1  -6    7.53    2.89
  17  -1  -6   10.58    2.76
  17   1  -6    3.80    3.41
  -1  17   6    2.94    2.17
  17  -1  -6   11.51    3.95
  17  -1   6    7.18    2.93
  -1  17   6    6.55    2.69
  17   1  -8  250.69   11.13
  17  -1  -8  260.56   11.88
  17   1  -8  234.41   10.40
  -1  17  -8  255.94   11.10
   1  17   8  253.61   10.46
  -1  17   8  240.30   10.34
  -1  17   8  255.30   10.89
   2  17  -1    9.68    2.64
   2  17   1   10.79    3.25
  -2  17  -1    6.86    2.75
  -2  17   1   12.54    3.35
   2  17  -1   10.48    2.89
  -2  17  -1   10.89    4.44
   2  17  -1    4.07    3.57
   2  17   1    9.76    3.49
  -2  17  -1    9.12    2.57
  17   2  -1   11.02    3.78
  -2  17   1    7.39    2.98
  -2  17  -3   32.86    5.13
   2  17  -3   34.51    5.49
   2  17   3   31.60    4.65
  17   2  -3   25.96    4.44
  17  -2  -3   30.55    4.19
  -2  17   3   33.58    4.54
   2  17   3   27.22    4.31
  17  -2   3   23.72    4.64
  17  -2   3   39.26    4.93
  17   2   3   38.06    5.67
 -17   2  -3   29.87    4.48
 -17   2   3   28.78    4.57
  -2  17  -5   72.17    6.71
   2  17  -5   87.39    7.31
  -2  17   5   93.34    6.75
   2  17   5   79.52    6.37
   2  17   5   80.89    6.65
  -2  17   5   90.68    6.63
  17   2  -5   99.65    7.92
  17  -2  -5   81.19    8.02
  17  -2   5   77.98    7.54
 -17   2  -5   89.75    6.48
 -17   2   5   77.44    6.05
  17   2  -5   87.80    7.19
  17  -2  -5   81.95    6.46
  17   2   5   71.22    6.97
  -2  17   7   67.66    5.07
  -2  17  -7   76.98    5.78
   2  17  -7   75.98    5.79
  -2  17   7   69.01    4.86
   2  17   7   68.52    5.13
  17   2  -7   72.23    5.67
  17  -2  -7   64.64    6.19
  17  -2   7   65.87    6.16
  17   2  -7   62.93    5.44
  17  -2  -7   59.72    4.78
  -2  17   7   66.28    5.35
   2  17   7   63.98    5.23
  -3  17   0   48.33    5.31
  -3  17   0   46.48    4.77
   3  17   0   50.10    5.04
  17   3   0   56.74    6.35
   3  17   0   46.35    5.23
 -17   3   0   49.73    5.80
  -3  17  -2  904.37   32.83
  -3  17   2  915.42   34.20
  -3  17  -2  939.91   35.72
   3  17  -2  964.56   36.02
  -3  17   2  919.16   33.95
   3  17   2  895.21   33.88
  17   3  -2  888.39   35.53
   3  17   2  952.91   34.76
  17   3   2  966.20   37.31
 -17   3  -2  919.47   35.38
 -17   3   2  944.00   35.57
  -3  17  -4    1.90    2.82
   3  17  -4   -0.48    2.92
  17   3  -4    1.01    2.66
  -3  17   4   -0.80    2.55
  -3  17   4    0.39    2.54
  17   3  -4    2.74    2.75
  17  -3   4   -1.83    3.33
  17   3   4   -0.58    3.00
 -17   3  -4    0.87    2.27
 -17   3   4    0.43    2.04
 -17   3   4   -1.01    2.62
  -3  17  -6  265.50   12.55
   3  17  -6  252.43   12.38
  -3  17   6  226.89   11.37
   3  17   6  251.06   11.87
  17   3  -6  231.77   11.67
  -3  17   6  251.50   11.45
  17  -3   6  248.21   13.55
 -17   3   6  237.82   12.36
  17   3  -6  248.58   12.50
  17   3  -8   86.35    5.49
  -3  17  -8   81.50    5.21
   3  17  -8   98.72    5.61
  -3  17   8   90.63    5.07
  -4  17   1  340.11   15.05
  -4  17  -1  291.29   13.93
  -4  17   1  309.46   14.17
  17   4  -1  293.81   15.87
   4  17   1  303.49   14.80
 -17   4  -1  312.25   15.80
 -17   4   1  300.75   16.14
  -4  17  -3  459.83   20.29
   4  17  -3  485.03   20.73
  -4  17   3  482.74   19.59
   4  17   3  487.63   20.29
  -4  17  -3  441.87   17.72
  -4  17   3  453.64   19.50
  17  -4   3  428.13   21.48
 -17   4  -3  454.33   20.20
 -17   4   3  468.65   20.28
  17   4  -3  469.24   20.93
  17   4   3  502.66   22.39
 -17   4   3  476.49   21.35
  -4  17  -5  113.32    7.77
   4  17  -5  113.77    7.82
   4  17   5  115.93    7.69
  -4  17   5  107.46    7.15
  17  -4   5   94.82    8.47
 -17   4  -5  108.86    6.97
 -17   4   5  109.17    6.92
  17   4  -5  118.92    8.16
 -17   4   5   93.24    7.80
  17   4   5  117.27    8.76
  -4  17  -7  482.19   18.74
   4  17  -7  491.52   18.99
  -4  17   7  517.65   18.77
  -4  17   7  490.85   18.01
  17  -4  -7  512.26   20.76
  17  -4   7  506.48   20.88
  17   4  -7  496.09   19.52
  -5  17   0    1.92    2.40
  17   5   0    3.90    3.19
  -5  17   0    0.32    1.95
 -17   5   0    1.75    2.87
 -17   5   0    1.04    2.67
  -5  17  -2  612.47   22.66
  -5  17  -2  569.67   23.14
  -5  17   2  604.84   23.18
  17   5  -2  577.83   25.01
   5  17   2  587.63   23.98
 -17   5  -2  592.58   24.57
 -17   5   2  566.50   24.31
  17   5   2  620.04   26.38
 -17   5   2  620.45   26.04
   5  17   4    0.40    2.66
  -5  17  -4   -0.39    2.53
   5  17  -4   -0.40    2.71
  17   5  -4   -0.47    2.31
  -5  17   4    0.35    2.09
  -5  17   4   -0.35    2.30
  17  -5   4    1.20    2.84
 -17   5  -4    3.95    2.19
 -17   5   4    5.01    2.36
  17   5   4    0.55    2.78
 -17   5   4    0.51    2.80
  -5  17  -6  313.43   13.37
   5  17  -6  325.59   13.71
  -5  17   6  322.82   13.46
  -5  17   6  298.34   12.88
  17  -5  -6  319.43   15.43
  17  -5   6  335.63   15.90
 -17   5   6  294.71   14.47
  17   5  -6  324.37   14.39
  17  -5  -8   32.41    3.33
  17   5  -8   30.99    2.97
  -5  17   8   31.86    2.54
  -6  17   1    0.75    2.45
  -6  17  -1    1.71    2.24
  -6  17  -1    2.10    2.41
  17   6  -1    1.58    2.69
  -6  17   1    3.86    2.18
 -17   6  -1    7.74    2.73
 -17   6   1    5.32    2.04
 -17   6   1    1.19    3.03
  -6  17   3   74.16    5.83
  -6  17  -3   73.31    4.96
  -6  17  -3   63.08    5.55
 -17   6  -3   60.43    5.43
  -6  17   3   71.43    5.61
  17   6  -3   70.69    6.51
 -17   6  -3   58.99    5.87
 -17   6   3   74.06    6.12
 -17   6   3   79.80    7.35
  17   6   3   72.91    7.06
  -6  17  -5  109.62    6.92
   6  17  -5  133.58    7.58
  -6  17   5  138.24    7.49
  17  -6  -5  116.45    8.66
  17  -6   5  119.40    9.04
  17   6   5  128.57    8.82
 -17   6   5  129.51    8.74
  17  -6  -7  174.33    8.93
  17   6  -7  199.68    9.30
  -6  17   7  190.31    7.88
  -7  17   0  453.75   17.92
  -7  17   0  402.16   16.26
 -17   7   0  429.52   18.98
  17   7   0  441.91   19.87
  -7  17  -2   -1.13    1.73
  -7  17  -2    3.40    2.42
 -17   7  -2    1.69    2.16
  -7  17   2   -0.30    1.85
  17   7  -2    2.83    2.66
 -17   7  -2    3.38    2.27
 -17   7   2    0.84    1.76
 -17   7   2   -0.55    3.15
  -7  17   4  410.94   15.89
  -7  17   4  397.28   15.84
  -7  17  -4  355.72   15.15
 -17   7  -4  378.27   15.78
  17  -7   4  386.29   18.46
 -17   7  -4  366.08   15.87
 -17   7   4  381.92   15.90
 -17   7   4  404.49   17.93
  17   7   4  401.61   18.03
  17   7  -6    1.70    1.73
 -17   7  -6    0.43    2.12
  -7  17   6    1.33    1.54
  17  -7  -6    0.33    2.30
  -7  17   6    2.71    1.42
  17  -7   6    5.74    2.53
  -8  17  -1  359.14   14.67
  -8  17  -1  342.58   15.52
 -17   8  -1  337.24   14.64
  -8  17   1  333.03   13.81
 -17   8  -1  358.94   15.95
 -17   8   1  352.38   15.86
  17   8  -1  366.83   16.45
  17   8   1  340.15   16.42
 -17   8   1  350.94   17.31
  -8  17   3   62.96    4.91
  -8  17  -3   51.40    3.83
  -8  17  -3   60.79    4.98
 -17   8  -3   47.45    4.52
  17   8  -3   53.37    5.23
  -8  17   3   54.86    4.46
  17   8  -3   52.70    4.97
 -17   8  -3   47.64    4.71
 -17   8   3   50.46    4.72
 -17   8   3   54.43    5.90
  17   8   3   50.51    5.52
  -8  17   5  615.14   20.99
  17   8  -5  591.89   21.87
  -8  17   5  578.25   20.57
  17   8  -5  551.70   22.17
  17  -8  -5  578.83   22.28
 -17   8  -5  541.83   20.77
  17  -8   5  595.08   23.54
 -17   8   5  565.54   22.65
  17   8  -7   14.16    2.03
  -8  17   7   13.82    1.58
  -9  17   0  889.62   30.03
 -17   9   0  815.99   29.43
 -17   9   0  857.37   31.15
  17   9   0  833.97   31.23
  -9  17   2    3.52    1.93
  -9  17  -2    3.13    1.58
  -9  17  -2    2.59    2.07
 -17   9  -2    2.53    1.88
  -9  17   2    3.30    1.58
 -17   9   2    1.87    2.60
  17   9  -2    2.91    1.71
 -17   9  -2    3.68    1.97
 -17   9   2    2.31    1.89
  17   9   2    1.98    2.03
  -9  17   4  471.41   17.32
  17   9  -4  476.65   18.53
  17  -9  -4  465.02   18.51
  -9  17  -4  454.75   17.31
 -17   9  -4  455.59   17.50
  -9  17   4  477.67   17.33
  17   9  -4  489.81   18.42
 -17   9   4  447.70   19.31
  17   9  -6   36.78    3.19
 -10  17  -1    8.13    1.91
 -10  17  -1   11.16    2.75
 -17  10  -1   12.18    2.22
 -17  10  -1    9.59    2.22
 -17  10   1    9.55    2.36
  17  10   1    9.13    2.43
 -10  17   3    5.74    1.66
 -10  17  -3    3.70    1.15
 -17  10   3    4.12    1.27
  17  10  -3    3.92    1.70
  17 -10  -3    6.38    2.04
 -10  17  -3    3.85    1.88
 -17  10  -3    3.98    1.68
 -10  17   3    3.89    1.39
 -17  10   3    5.95    2.54
 -10  17   5   29.31    2.38
 -11  17   0   12.96    2.13
 -11  17   2  346.66   12.59
 -11  17  -2  318.02   11.84
 -11  17  -2  326.92   13.01
 -17  11  -2  310.16   12.35
 -12  17  -1  102.45    4.79
 -17  12   1  105.08    4.89
   0  18   0  481.72   19.48
   0  18   0  497.00   19.53
   0  18   2   49.50    4.95
   0  18  -2   40.56    5.34
  18   0  -2   41.81    4.84
   0  18  -2   42.32    3.71
   0  18   2   54.79    5.15
  18   0   2   31.80    4.83
  18   0  -4  236.04   12.50
   0  18  -4  248.19   12.21
   0  18   4  211.36   10.84
  18   0   4  208.19   11.20
 -18   0  -4  192.66   10.56
  18   0  -4  200.01   10.80
 -18   0   4  205.69   10.77
  18   0  -6    3.18    2.48
   0  18  -6    3.20    2.41
   0  18   6    1.34    1.78
  18   0  -6    1.11    1.54
   0  18  -8   78.15    4.34
   1  18  -1   25.02    3.28
   1  18   1   21.92    3.52
  -1  18  -1   27.71    3.54
  -1  18   1   22.66    3.64
   1  18  -1   30.19    3.48
  -1  18  -1   24.70    3.15
   1  18   1   25.53    3.84
  -1  18   1   29.26    3.88
  18   1  -1   20.99    3.77
   1  18   3    7.39    2.58
  -1  18  -3   13.52    3.85
   1  18   3   10.94    3.02
  -1  18   3    6.88    2.58
  18   1  -3    5.44    2.57
  18  -1  -3    9.66    2.57
  18   1   3    6.18    2.88
  18  -1   3    5.43    2.66
 -18   1  -3    5.44    2.75
 -18   1   3    8.43    2.83
  18   1  -5  162.66    9.46
  18  -1  -5  186.54   10.46
  -1  18  -5  153.42    9.13
   1  18   5  172.24    8.97
  -1  18   5  172.57    8.67
  18   1  -5  135.35    8.55
  18   1   5  154.58    9.00
  18  -1  -5  154.12    8.45
  18  -1  -7   61.11    4.73
  -1  18  -7   47.42    4.02
   1  18   7   55.14    3.91
  -1  18   7   56.29    3.95
  -2  18   0  151.98    8.52
   2  18   0  142.14    8.15
   2  18   0  151.02    8.59
  -2  18   0  136.63    8.00
 -18   2   0  149.45    9.63
  -2  18  -2  274.14   12.15
  -2  18   2  293.08   13.59
  -2  18   2  308.37   13.59
   2  18   2  307.09   13.71
  18   2  -2  291.73   14.44
   2  18   2  287.96   13.69
  18  -2   2  285.02   14.11
  18   2   2  311.77   15.50
 -18   2  -2  294.82   14.52
 -18   2   2  289.76   14.45
  -2  18   4   67.47    5.53
  -2  18  -4   52.64    5.61
   2  18  -4   58.95    5.73
  -2  18   4   59.03    5.09
  18   2  -4   78.98    6.11
  18  -2   4   62.19    5.74
 -18   2  -4   68.27    5.48
 -18   2   4   53.37    5.00
  18   2  -4   73.38    6.05
  18   2   4   72.03    6.36
  18  -2  -6   77.78    6.30
  -2  18   6   76.07    5.06
  -2  18  -6   78.68    5.74
   2  18  -6   84.66    5.86
   2  18   6   86.24    5.54
  -2  18   6   74.85    5.19
  18   2  -6   75.53    5.53
  -3  18   1   84.89    6.04
  18   3  -1   78.83    6.98
   3  18   1   83.65    6.44
  -3  18  -1   93.64    6.17
  -3  18   1   91.91    6.55
  18  -3   1   82.00    6.94
 -18   3  -1   95.40    7.35
 -18   3   1   97.34    7.42
  18   3   1   94.75    7.92
  -3  18  -3  140.00    8.84
   3  18  -3  155.08    9.21
  -3  18   3  141.66    8.08
  18   3  -3  114.86    8.23
   3  18   3  137.42    8.31
  18  -3   3  127.07    8.88
 -18   3  -3  130.56    8.36
 -18   3   3  115.84    8.05
  18   3   3  136.58    9.27
   3  18   5    3.40    2.28
  -3  18  -5    2.64    2.45
   3  18  -5    2.02    2.46
  18   3  -5    2.83    2.02
  -3  18   5    3.25    1.89
  18  -3  -5    0.88    2.98
  18  -3   5    3.54    2.41
  18   3   5    1.13    2.15
  18  -3  -7  298.84   12.69
  18   3  -7  276.38   12.03
  -3  18  -7  290.27   11.57
   3  18  -7  304.37   11.80
  -3  18   7  298.42   11.50
  -4  18   0    9.37    2.57
  -4  18   0    7.02    2.06
 -18   4   0   14.27    3.13
  -4  18   2  535.17   20.42
  18   4  -2  520.31   21.95
   4  18   2  575.37   21.49
  -4  18  -2  523.01   19.48
  -4  18   2  504.59   20.50
  18  -4   2  506.97   22.21
 -18   4  -2  509.79   21.52
 -18   4   2  514.28   21.58
  18   4   2  545.68   22.96
  -4  18  -4    4.40    2.44
   4  18  -4    6.28    2.83
  18   4  -4    6.56    2.45
  -4  18   4   11.58    2.70
  -4  18   4    3.81    2.03
  18  -4   4   10.26    3.17
 -18   4  -4    6.74    2.07
 -18   4   4    7.78    2.30
  18   4   4   10.09    3.09
  -4  18   6  211.49    9.25
  -4  18  -6  215.05    9.37
   4  18  -6  206.99    9.39
  18   4  -6  182.02    9.46
  -4  18   6  205.80    8.90
  -5  18  -1   10.90    2.45
  -5  18   1   11.44    2.86
  -5  18   1   10.47    2.42
  18   5  -1    9.33    3.02
  18   5   1    8.03    2.96
 -18   5  -1   11.50    3.06
 -18   5   1    5.12    2.52
  -5  18   3  115.04    6.79
  18   5  -3  104.83    7.49
  -5  18   3  107.68    6.79
  18  -5   3  119.56    8.47
 -18   5  -3  102.29    7.12
 -18   5   3  118.61    7.39
  18   5   3  117.65    8.30
 -18   5   3   99.46    7.44
  18   5  -5   39.48    3.94
  18  -5   5   38.59    4.34
  -5  18   5   33.04    3.36
  18  -5  -5   33.41    4.35
  18  -5  -7  173.15    8.13
  18   5  -7  186.68    8.06
  -5  18   7  172.11    7.23
  -6  18   0  260.21   11.74
 -18   6   0  266.25   13.01
  18   6   0  258.20   13.48
  -6  18  -2   82.01    5.09
  -6  18   2   81.51    5.41
  18   6  -2   81.98    6.49
 -18   6  -2   81.14    6.13
 -18   6   2   80.68    6.14
  18   6   2   82.48    6.87
 -18   6   2   82.67    6.81
  -6  18   4  133.09    6.95
  18   6  -4  128.07    7.64
  -6  18   4  124.72    6.79
  18  -6   4  128.00    8.42
 -18   6  -4  129.12    7.01
 -18   6   4  111.12    7.50
  18   6   4  131.01    8.27
  18  -6  -6    4.70    2.12
  -6  18   6    4.16    1.17
  18   6  -6    5.72    2.05
  -7  18   1  113.14    6.47
  -7  18  -1  106.92    6.13
  -7  18   1   95.02    5.45
 -18   7  -1  106.59    7.08
 -18   7   1  109.89    7.14
  18   7  -1  106.01    7.42
  18   7   1  109.16    7.61
  -7  18   3    5.81    1.81
  -7  18   3    7.59    1.96
  18  -7   3    6.28    2.56
  18   7  -3    7.99    2.30
 -18   7  -3    5.41    1.87
 -18   7   3    5.83    1.96
 -18   7   3    1.09    2.00
  -7  18   5  299.66   11.44
  18   7  -5  305.90   12.88
  18  -7  -5  303.48   12.92
  -7  18   5  291.83   11.60
  -8  18   0  524.82   19.30
 -18   8   0  520.90   20.43
  18   8   0  530.47   20.85
  -8  18  -2   10.70    1.81
  -8  18   2   12.09    1.85
  18   8  -2   15.55    2.74
 -18   8  -2   12.04    2.35
 -18   8   2   11.27    2.29
  18   8   2   11.45    2.64
  -8  18   4  321.01   11.98
  18   8  -4  303.41   12.82
  18  -8  -4  302.13   12.98
  -8  18   4  308.85   11.84
  -9  18   1    4.64    1.73
  -9  18  -1    5.20    1.56
 -18   9  -1    3.98    1.59
 -18   9   1    3.70    1.60
  -9  18   3    2.05    1.35
  18   9  -3    0.57    1.13
  18  -9  -3    1.86    1.72
  -9  18   3    1.60    1.07
 -10  18   0   26.66    2.47
 -10  18   2  277.54   10.55
   0  19  -1    0.61    1.25
   0  19   1   -0.54    1.76
   0  19   1   -0.27    1.66
  19   0   1    0.41    2.11
   0  19   3   25.90    3.24
  19   0  -3   34.03    4.17
   0  19   3   23.55    3.09
  19   0  -3   23.57    2.96
  19   0   3   26.22    3.40
 -19   0  -3   24.65    3.30
 -19   0   3   28.52    3.48
  19   0  -5   18.07    2.86
  -1  19   0  167.53    8.27
 -19   1   0  161.76    9.44
  -1  19   2  197.06    9.26
  19   1  -2  179.00    9.51
   1  19   2  190.76    9.31
  -1  19   2  182.43    9.05
   1  19   2  189.56    9.16
 -19   1  -2  194.41   10.04
 -19   1   2  179.75    9.86
  19   1   2  178.28   10.13
  19  -1   2  174.45    9.70
  19   1  -4   99.48    6.08
  19  -1  -4   91.32    6.54
  19   1  -4   86.96    5.73
   1  19   4   95.80    5.94
  -1  19   4   85.50    5.63
  19  -1  -6   75.23    4.75
   1  19   6   77.85    4.53
  -1  19   6   83.38    4.60
  -2  19  -1    2.34    1.63
  -2  19   1    4.30    1.89
   2  19   1   -0.27    1.70
  -2  19   1    6.82    1.91
  19  -2   1    6.75    2.19
  19   2   1    8.50    2.79
 -19   2  -1    4.16    2.10
 -19   2   1    1.53    1.70
  19   2  -3   54.27    4.80
   2  19   3   56.76    4.72
  -2  19   3   52.62    4.38
 -19   2  -3   50.04    4.49
 -19   2   3   60.77    4.89
  19   2   3   67.25    5.46
  19  -2  -5   66.45    5.00
  -2  19   5   52.04    3.88
  -3  19   0  123.47    6.77
 -19   3   0  122.24    7.78
  19   3   0  117.96    8.13
  -3  19   2   96.91    5.98
  19   3  -2   87.73    6.41
  -3  19   2  106.56    6.03
 -19   3  -2  103.56    6.79
 -19   3   2   92.26    6.48
  19   3   2  102.71    7.20
  19  -3  -4   83.46    6.40
  -3  19   4   80.91    5.07
  19   3  -4   89.66    5.77
  -3  19   4   81.59    5.15
  19   3   4   79.76    5.76
  19  -3  -6   44.24    3.60
  19   3  -6   50.07    3.66
  -3  19   6   40.60    2.99
  -4  19  -1   31.55    2.99
  -4  19   1   36.51    3.56
  -4  19   1   31.97    2.97
  19   4  -1   37.21    4.42
 -19   4  -1   36.83    4.09
 -19   4   1   37.40    4.19
  19   4   1   46.00    4.71
  -4  19   3   25.24    2.83
  19   4  -3   17.07    2.96
 -19   4  -3   16.71    2.64
 -19   4   3   25.15    2.99
  19   4   3   20.26    3.21
  -4  19   5  156.91    6.98
  -4  19   5  155.38    7.11
  -5  19   0  280.04   11.84
 -19   5   0  316.61   13.50
  -5  19   2   17.93    2.57
  -5  19   2   14.79    2.25
  19   5  -2   15.48    2.81
  19   5   2   16.09    2.88
 -19   5  -2   21.70    2.94
 -19   5   2   21.06    2.90
  -5  19   4  249.82    9.99
  19  -5  -4  250.31   11.43
  -5  19   4  231.54    9.79
  -6  19  -1   51.95    3.57
  -6  19   1   58.38    4.09
 -19   6  -1   54.92    4.44
 -19   6   1   50.90    4.38
  19   6  -1   48.15    4.50
  -6  19   3    4.34    1.57
  -6  19   3    4.37    1.36
  19  -6  -5  147.81    7.01
  -7  19   0  266.13   10.52
  19   7   0  265.77   11.84
  -7  19   4  176.48    7.24
  19   7  -4  177.76    7.87
  19  -7  -4  195.72    8.38
  -8  19   1    4.08    1.35
  -8  19   3   20.98    1.91
 -20   0   0   51.68    4.34
  20   0   0   48.72    4.34
  20   0  -2  425.65   16.19
   0  20   2  417.38   15.56
 -20   0  -2  451.74   16.66
   0  20   4    1.78    1.19
  -1  20   1   16.24    2.16
  20   1  -1   18.50    2.86
  20   1   1   20.18    2.90
 -20  -1  -1   18.84    2.69
 -20  -1   1   14.80    2.48
 -20   1  -1   15.73    2.54
 -20   1   1   20.66    2.79
  20  -1  -3  117.48    6.33
  -1  20   3  108.88    5.63
  -2  20   0   65.92    4.07
 -20   2   0   80.24    5.38
  20   2   0   81.69    5.67
 -20  -2   0   87.98    5.52
  -2  20   2  111.10    5.53
  -2  20   2   95.41    5.03
  20  -2  -4   53.18    3.81
  -2  20   4   54.38    3.39
  -3  20   1   45.45    3.32
 -20   3  -1   51.53    4.02
 -20   3   1   46.37    3.90
  20   3  -1   44.73    4.17
  20   3   1   53.74    4.35
  -3  20   3    1.74    1.17
  20  -3  -3    3.18    1.79
  -3  20   3    1.11    0.98
  -4  20   0  358.58   12.87
  -4  20   2    0.79    1.06
  -5  20   1  122.94    5.59
  20  -6  -2   60.38    4.06
   0   0   0    0.00    0.00


TITL NH4-Th6-tetra_auto in I4/mmm
REM I4/mmm (#139 in standard setting)
CELL 1.54184  16.732421  16.732421  12.171984  90.0000  90.0000  90.0000
ZERR    2.00   0.000119   0.000119   0.000134   0.0000   0.0000   0.0000
LATT  2
SYMM -x,-y, z
SYMM -y, x, z
SYMM  y,-x, z
SYMM -x, y,-z
SYMM  x,-y,-z
SYMM  y, x,-z
SYMM -y,-x,-z
SFAC N O S Th
UNIT 24.00 100.00 24.00 12.00
TREF
HKLF 4
END
_computing_structure_solution     'SHELXT 2018/2 (Sheldrick, 2018)'
;
_shelx_hkl_checksum                16392
_olex2_submission_special_instructions  'No special instructions were received'
_oxdiff_exptl_absorpt_empirical_details
;
Empirical correction (ABSPACK) includes:
- Absorption correction using spherical harmonics
- Frame scaling
- Detector area scaling
- B-factor correction
;
# start Validation Reply Form
_vrf_PLAT242_nh4-th6-tetra
;
PROBLEM: Low MainMol Ueq as Compared to Neighbors of S1 Check
RESPONSE: Positional Disorder, see SI
;
_vrf_PLAT306_nh4-th6-tetra
;
PROBLEM: Isolated Oxygen Atom (H-atoms Missing ?) ....... O1 Check
RESPONSE: Water molecules, H-atoms could not be located
;
_vrf_PLAT972_nh4-th6-tetra
;
PROBLEM: Check Calcd Resid. Dens. 0.03A From O3 -3.07 eA-3
RESPONSE: High q-peaks are common near heavy atoms
;
_vrf_PLAT975_nh4-th6-tetra
;
PROBLEM: Check Calcd Resid. Dens. 0.95A From O3 1.77 eA-3
RESPONSE: High q-peaks are common near heavy atoms
;
