data_nh4th-th6
_audit_creation_date               2022-03-07
_audit_creation_method
;
Olex2 1.3
(compiled 2020.11.12 svn.r5f609507 for OlexSys, GUI svn.r6408)
;
_shelx_SHELXL_version_number       '2018/3'
_audit_contact_author_address      ?
_audit_contact_author_email        ?
_audit_contact_author_name         ''
_audit_contact_author_phone        ?
_publ_contact_author_id_orcid      ?
_publ_section_references
;
Dolomanov, O.V., Bourhis, L.J., Gildea, R.J, Howard, J.A.K. & Puschmann, H.
 (2009), J. Appl. Cryst. 42, 339-341.

Sheldrick, G.M. (2015). Acta Cryst. C71, 3-8.
;
_chemical_name_common              ?
_chemical_name_systematic          ?
_chemical_formula_moiety           'O75 S14 Th8, 8(N)'
_chemical_formula_sum              'N8 O75 S14 Th8'
_chemical_formula_weight           3617.24
_chemical_melting_point            ?
loop_
  _atom_type_symbol
  _atom_type_description
  _atom_type_scat_dispersion_real
  _atom_type_scat_dispersion_imag
  _atom_type_scat_source
 'N' 'N' 0.0311 0.0180 'International Tables Vol C Tables 4.2.6.8 and 6.1.1.4'
 'O' 'O' 0.0492 0.0322 'International Tables Vol C Tables 4.2.6.8 and 6.1.1.4'
 'S' 'S' 0.3331 0.5567 'International Tables Vol C Tables 4.2.6.8 and 6.1.1.4'
 'Th' 'Th' -4.1491 12.3296
 'International Tables Vol C Tables 4.2.6.8 and 6.1.1.4'

_shelx_space_group_comment
;
The symmetry employed for this shelxl refinement is uniquely defined
by the following loop, which should always be used as a source of
symmetry information in preference to the above space-group names.
They are only intended as comments.
;
_space_group_crystal_system        'triclinic'
_space_group_IT_number             2
_space_group_name_H-M_alt          'P -1'
_space_group_name_Hall             '-P 1'
loop_
  _space_group_symop_operation_xyz
 'x, y, z'
 '-x, -y, -z'

_cell_length_a                     12.2549(4)
_cell_length_b                     13.1342(5)
_cell_length_c                     15.0001(5)
_cell_angle_alpha                  81.815(3)
_cell_angle_beta                   70.028(3)
_cell_angle_gamma                  66.129(3)
_cell_volume                       2075.05(14)
_cell_formula_units_Z              1
_cell_measurement_reflns_used      10529
_cell_measurement_temperature      173.00(10)
_cell_measurement_theta_max        76.5110
_cell_measurement_theta_min        3.1240
_shelx_estimated_absorpt_T_max     0.635
_shelx_estimated_absorpt_T_min     0.315
_exptl_absorpt_coefficient_mu      50.012
_exptl_absorpt_correction_T_max    1.00000
_exptl_absorpt_correction_T_min    1.00000
_exptl_absorpt_correction_type     sphere
_exptl_absorpt_process_details
;
CrysAlisPro 1.171.40.68a (Rigaku Oxford Diffraction, 2019)
Spherical absorption correction
 using equivalent radius and absorption coefficient.
Empirical absorption correction using spherical harmonics,
 implemented in SCALE3 ABSPACK scaling algorithm.
;
_exptl_absorpt_special_details     ?
_exptl_crystal_colour              'clear colourless'
_exptl_crystal_colour_lustre       clear
_exptl_crystal_colour_modifier     .
_exptl_crystal_colour_primary      colourless
_exptl_crystal_density_diffrn      2.895
_exptl_crystal_density_meas        ?
_exptl_crystal_density_method      ?
_exptl_crystal_description         block
_exptl_crystal_F_000               1600
_exptl_crystal_size_max            0.03
_exptl_crystal_size_mid            0.01
_exptl_crystal_size_min            0.01
_exptl_crystal_size_rad            0.400
_exptl_transmission_factor_max     ?
_exptl_transmission_factor_min     ?
_diffrn_reflns_av_R_equivalents    0.0857
_diffrn_reflns_av_unetI/netI       0.0772
_diffrn_reflns_Laue_measured_fraction_full  0.996
_diffrn_reflns_Laue_measured_fraction_max  0.996
_diffrn_reflns_limit_h_max         14
_diffrn_reflns_limit_h_min         -14
_diffrn_reflns_limit_k_max         15
_diffrn_reflns_limit_k_min         -15
_diffrn_reflns_limit_l_max         17
_diffrn_reflns_limit_l_min         -17
_diffrn_reflns_number              23878
_diffrn_reflns_point_group_measured_fraction_full  0.996
_diffrn_reflns_point_group_measured_fraction_max  0.996
_diffrn_reflns_theta_full          66.594
_diffrn_reflns_theta_max           66.594
_diffrn_reflns_theta_min           3.135
_diffrn_ambient_temperature        173.00(10)
_diffrn_detector_area_resol_mean   10.0000
_diffrn_detector_type              HyPix
_diffrn_measured_fraction_theta_full  0.996
_diffrn_measured_fraction_theta_max  0.996
_diffrn_measurement_details
;
List of Runs (angles in degrees, time in seconds):

  # Type    Start    End  Width  t~exp~   \w     \q     \k     \f   Frames
--------------------------------------------------------------------------
  1  \w    -57.00  16.00   1.00    1.00    --  -48.62  51.00 -36.00   73
  2  \w    -50.00 -14.00   1.00    2.50    --  -86.25  51.00 -36.00   36
  3  \w    -61.00 -26.00   1.00    2.50    --  -86.25  57.00  30.00   35
  4  \w    -42.00 -14.00   1.00    2.50    --  -86.25  37.00  60.00   28
  5  \w    -42.00 -17.00   1.00    2.50    --  -86.25  37.00  90.00   25
  6  \w    -39.00 -13.00   1.00    2.50    --  -86.25  37.00 150.00   26
  7  \w    -49.00 -14.00   1.00    2.50    --  -86.25  57.00 120.00   35
  8  \w    -54.00 -28.00   1.00    1.00    --  -48.62 125.00 120.00   26
  9  \w    -84.00 -59.00   1.00    1.00    --  -48.62 125.00 120.00   25
 10  \w     43.00  74.00   1.00    1.00    --   48.62  51.00 -36.00   31
 11  \w     85.00 110.00   1.00    1.00    --   48.62  77.00 -60.00   25
 12  \w     96.00 167.00   1.00    2.50    --  104.24  51.00 -36.00   71
 13  \w    144.00 177.00   1.00    2.50    --  104.24  37.00  30.00   33
 14  \w    112.00 138.00   1.00    2.50    --  104.24  37.00  30.00   26
 15  \w     95.00 129.00   1.00    2.50    --  104.24  19.00  60.00   34
 16  \w     90.00 151.00   1.00    2.50    --  104.24  57.00  60.00   61
 17  \w     85.00 177.00   1.00    2.50    --  104.24  77.00-120.00   92
 18  \w     97.00 174.00   1.00    2.50    --  104.24 125.00-120.00   77
 19  \w     51.00  97.00   1.00    2.50    --  104.24 -77.00 -60.00   46
 20  \w     75.00 105.00   1.00    2.50    --  104.24 -99.00 -60.00   30
 21  \w     80.00 111.00   1.00    2.50    --  104.24-125.00-120.00   31
 22  \w     83.00 110.00   1.00    2.50    --  104.24-125.00-150.00   27
 23  \w     55.00 107.00   1.00    2.50    --  104.24-125.00 -90.00   52
 24  \w     62.00 106.00   1.00    2.50    --  104.24 -77.00   0.00   44
 25  \w     80.00 106.00   1.00    2.50    --  104.24 -99.00   0.00   26
 26  \w     50.00 106.00   1.00    2.50    --  104.24 -99.00  90.00   56
 27  \w     47.00  73.00   1.00    2.50    --  104.24 -99.00   0.00   26
 28  \w     35.00  61.00   1.00    2.50    --  104.24 -99.00 -60.00   26
 29  \w     34.00  60.00   1.00    2.50    --  104.24 -77.00   0.00   26
 30  \w     35.00  67.00   1.00    2.50    --  104.24-125.00-120.00   32
 31  \w     43.00  77.00   1.00    2.50    --  104.24-125.00-150.00   34
 32  \w     32.00  58.00   1.00    2.50    --  104.24 -57.00-150.00   26
 33  \w     34.00  65.00   1.00    2.50    --  104.24 -57.00 150.00   31
 34  \w     32.00  57.00   1.00    2.50    --  104.24 -51.00 177.00   25
 35  \w    -11.00  40.00   1.00    1.00    --   48.62 -51.00 177.00   51
 36  \w   -116.00 -84.00   1.00    1.00    --  -48.62-125.00 120.00   32
 37  \w   -117.00 -90.00   1.00    1.00    --  -48.62 -77.00  60.00   27
 38  \w   -120.00 -41.00   1.00    1.00    --  -48.62 -51.00 177.00   79
 39  \w   -159.00 -95.00   1.00    2.50    --  -86.25 -51.00 177.00   64
 40  \w   -119.00 -94.00   1.00    1.00    --  -48.62-125.00 -60.00   25
 41  \w   -121.00 -96.00   1.00    1.00    --  -48.62-125.00-180.00   25
 42  \w    -41.00 -15.00   1.00    2.50    --  -86.25  37.00-180.00   26
 43  \w    -84.00 -30.00   1.00    2.50    --  -86.25 125.00-120.00   54
;
_diffrn_measurement_device         'four-circle diffractometer'
_diffrn_measurement_device_type    'XtaLAB Synergy, Dualflex, HyPix'
_diffrn_measurement_method         '\w scans'
_diffrn_radiation_type             CuK\a
_diffrn_radiation_wavelength       1.54184
_diffrn_source                     ?
_reflns_Friedel_coverage           0.000
_reflns_Friedel_fraction_full      .
_reflns_Friedel_fraction_max       .
_reflns_number_gt                  6350
_reflns_number_total               7321
_reflns_special_details
;
 Reflections were merged by SHELXL according to the crystal
 class for the calculation of statistics and refinement.
 
 Structure factors included contributions from the .fab file.
 
 _reflns_Friedel_fraction is defined as the number of unique
 Friedel pairs measured divided by the number that would be
 possible theoretically, ignoring centric projections and
 systematic absences.
;
_reflns_threshold_expression       'I > 2\s(I)'
_computing_cell_refinement         'CrysAlisPro 1.171.40.68a (Rigaku OD, 2019)'
_computing_data_collection         'CrysAlisPro 1.171.40.68a (Rigaku OD, 2019)'
_computing_data_reduction          'CrysAlisPro 1.171.40.68a (Rigaku OD, 2019)'
_computing_molecular_graphics      'Olex2 1.3 (Dolomanov et al., 2009)'
_computing_publication_material    'Olex2 1.3 (Dolomanov et al., 2009)'
_computing_structure_refinement    'SHELXL 2018/3 (Sheldrick, 2015)'
_computing_structure_solution      'SHELXT 2018/2 (Sheldrick, 2018)'
_refine_diff_density_max           8.557
_refine_diff_density_min           -4.425
_refine_diff_density_rms           0.719
_refine_ls_extinction_coef         .
_refine_ls_extinction_method       none
_refine_ls_goodness_of_fit_ref     1.086
_refine_ls_hydrogen_treatment      undef
_refine_ls_matrix_type             full
_refine_ls_number_parameters       470
_refine_ls_number_reflns           7321
_refine_ls_number_restraints       0
_refine_ls_R_factor_all            0.0925
_refine_ls_R_factor_gt             0.0817
_refine_ls_restrained_S_all        1.086
_refine_ls_shift/su_max            0.000
_refine_ls_shift/su_mean           0.000
_refine_ls_structure_factor_coef   Fsqd
_refine_ls_weighting_details      
 'w=1/[\s^2^(Fo^2^)+(0.1376P)^2^+147.1190P] where P=(Fo^2^+2Fc^2^)/3'
_refine_ls_weighting_scheme        calc
_refine_ls_wR_factor_gt            0.2303
_refine_ls_wR_factor_ref           0.2424
_refine_special_details            ?
_olex2_refinement_description
;
1. Uiso/Uaniso restraints and constraints
Uiso(O9) = Uiso(O41) = Uiso(O37) = Uiso(O5) = Uiso(O2) = Uiso(O19) = Uiso(O18)
= Uiso(O39)
2. Others
 Fixed Sof: O2(0.5) O5(0.5) O9(0.5) O17(0.5) O18(0.5) O19(0.5) O21(0.5)
 O25(0.5) O35(0.5) O37(0.5) O39(0.5) O41(0.5) O43(0.5)
;
_atom_sites_solution_hydrogens     .
_atom_sites_solution_primary       dual
_atom_sites_solution_secondary     ?
loop_
  _atom_site_label
  _atom_site_type_symbol
  _atom_site_fract_x
  _atom_site_fract_y
  _atom_site_fract_z
  _atom_site_U_iso_or_equiv
  _atom_site_adp_type
  _atom_site_occupancy
  _atom_site_site_symmetry_order
  _atom_site_calc_flag
  _atom_site_refinement_flags_posn
  _atom_site_refinement_flags_adp
  _atom_site_refinement_flags_occupancy
  _atom_site_disorder_assembly
  _atom_site_disorder_group
 Th1 Th 0.47605(7) 0.16803(6) 0.35940(5) 0.0224(2) Uani 1 1 d . . . . .
 Th2 Th 0.70076(8) 0.00264(7) 0.88572(5) 0.0255(2) Uani 1 1 d . . . . .
 Th3 Th 0.72365(8) 0.00489(7) 0.49183(5) 0.0243(2) Uani 1 1 d . . . . .
 Th4 Th 0.37165(7) 0.16636(7) 0.64063(5) 0.0228(2) Uani 1 1 d . . . . .
 S1 S 0.1818(6) 0.1898(5) 0.3216(4) 0.0265(12) Uani 1 1 d . . . . .
 S2 S 0.9620(6) -0.2060(6) 0.3151(5) 0.0358(14) Uani 1 1 d . . . . .
 S3 S 0.3970(6) 0.2338(5) 0.9978(4) 0.0285(12) Uani 1 1 d . . . . .
 S4 S 0.6392(6) 0.2019(5) 0.6815(4) 0.0262(12) Uani 1 1 d . . . . .
 S5 S 0.7794(6) 0.2113(5) 0.3058(4) 0.0274(12) Uani 1 1 d . . . . .
 S6 S 0.2985(6) 0.4302(5) 0.4994(4) 0.0274(12) Uani 1 1 d . . . . .
 S7 S 0.5998(6) 0.0019(5) 0.1402(4) 0.0272(12) Uani 1 1 d . . . . .
 O1 O 0.6991(16) 0.0049(14) 0.0530(15) 0.034(4) Uani 1 1 d . . . . .
 O2 O 0.541(3) 0.001(2) 0.611(2) 0.016(2) Uiso 0.5 1 d . . P A 2
 O3 O 0.242(2) 0.1219(18) 0.2361(15) 0.044(5) Uani 1 1 d . . . . .
 O4 O 0.4969(18) -0.0028(15) 0.1180(12) 0.035(4) Uani 1 1 d . . . . .
 O5 O 0.549(3) 0.177(3) 0.4931(19) 0.016(2) Uiso 0.5 1 d . . P A 1
 O6 O 0.654(2) 0.2270(16) 0.3052(13) 0.038(4) Uani 1 1 d . . . . .
 O7 O 0.3259(19) 0.1615(18) 1.0333(14) 0.041(5) Uani 1 1 d . . . . .
 O8 O 0.7232(18) 0.1364(15) 0.5991(12) 0.031(4) Uiso 1 1 d . . . . .
 O9 O 0.683(3) -0.004(2) 0.344(2) 0.016(2) Uiso 0.5 1 d . . P A 2
 O10 O 0.8585(19) -0.226(2) 0.3069(15) 0.047(5) Uani 1 1 d . . . . .
 O11 O 0.312(2) 0.3579(15) 0.5837(12) 0.038(5) Uani 1 1 d . . . . .
 O12 O 0.5083(18) 0.2378(15) 0.6801(14) 0.037(4) Uani 1 1 d . . . . .
 O13 O 0.6506(18) -0.0962(14) 0.1955(11) 0.031(4) Uani 1 1 d . . . . .
 O14 O 0.8081(14) 0.1390(13) 0.3828(12) 0.025(3) Uani 1 1 d . . . . .
 O15 O 0.9005(19) -0.1310(16) 0.9085(15) 0.042(5) Uani 1 1 d . . . . .
 O16 O 0.5573(17) 0.1021(14) 0.1973(10) 0.027(4) Uani 1 1 d . . . . .
 O17 O 0.966(3) 0.003(3) 0.492(2) 0.020(6) Uiso 0.5 1 d . . P A .
 O18 O 0.710(3) -0.178(3) 0.4917(19) 0.016(2) Uiso 0.5 1 d . . P A 2
 O19 O 0.569(3) 0.003(2) 0.646(2) 0.016(2) Uiso 0.5 1 d . . P A 1
 O20 O 0.360(2) 0.2984(18) 0.9193(14) 0.041(5) Uani 1 1 d . . . . .
 O21 O 0.996(4) -0.150(4) 0.219(3) 0.047(11) Uani 0.5 1 d . . P B 1
 O22 O 0.270(2) 0.2368(18) 0.3296(14) 0.040(5) Uani 1 1 d . . . . .
 O23 O 0.657(2) 0.1259(19) 0.7629(15) 0.047(5) Uani 1 1 d . . . . .
 O24 O 0.9228(19) -0.1125(17) 0.3765(13) 0.037(4) Uiso 1 1 d . . . . .
 O25 O 1.077(5) -0.217(4) 0.238(4) 0.059(13) Uani 0.5 1 d . . P B 2
 O26 O 0.1545(17) 0.1196(16) 0.4033(12) 0.032(4) Uani 1 1 d . . . . .
 O27 O 0.786(2) 0.1382(17) 0.9077(14) 0.041(5) Uani 1 1 d . . . . .
 O28 O 0.6692(19) 0.2943(16) 0.6853(12) 0.035(4) Uani 1 1 d . . . . .
 O29 O 0.9001(19) 0.0027(18) 0.7475(14) 0.041(4) Uani 1 1 d . . . . .
 O30 O 0.3726(19) 0.3072(19) 1.0733(13) 0.043(5) Uani 1 1 d . . . . .
 O31 O 0.4531(18) 0.3208(16) 0.2191(10) 0.030(4) Uani 1 1 d . . . . .
 O32 O 0.1662(18) 0.478(2) 0.5011(15) 0.047(5) Uani 1 1 d . . . . .
 O33 O 0.2492(16) 0.3141(16) 0.7845(12) 0.032(4) Uani 1 1 d . . . . .
 O34 O 0.8762(17) 0.1529(18) 0.2195(13) 0.039(5) Uani 1 1 d . . . . .
 O35 O 1.069(5) -0.302(4) 0.324(4) 0.054(13) Uani 0.5 1 d . . P B 2
 O36 O 0.065(2) 0.2777(17) 0.3175(14) 0.041(5) Uani 1 1 d . . . . .
 O37 O 0.530(3) 0.130(3) 0.4970(19) 0.016(2) Uiso 0.5 1 d . . P A 2
 O38 O 0.3412(18) 0.5184(17) 0.4976(12) 0.036(4) Uani 1 1 d . . . . .
 O39 O 0.654(3) -0.132(3) 0.4950(19) 0.016(2) Uiso 0.5 1 d . . P A 1
 O40 O 0.786(2) 0.3154(17) 0.3158(14) 0.042(5) Uani 1 1 d . . . . .
 O41 O 0.636(3) 0.004(2) 0.379(2) 0.016(2) Uiso 0.5 1 d . . P A 1
 O42 O 0.377(2) 0.3584(17) 0.4143(12) 0.039(5) Uani 1 1 d . . . . .
 O43 O 0.992(5) -0.290(3) 0.397(4) 0.054(12) Uani 0.5 1 d . . P B 1
 O44 O 0.5340(19) 0.1637(17) 0.9686(13) 0.038(4) Uani 1 1 d . . . . .
 N1 N 0.130(2) 0.725(2) 0.5032(15) 0.040(6) Uani 1 1 d . . . . .
 N2 N 0.932(2) -0.238(2) 1.0765(17) 0.038(5) Uani 1 1 d . . . . .
 N3 N 0.562(2) 0.511(3) 0.3411(18) 0.046(6) Uani 1 1 d . . . . .
 N4 N 0.897(2) 0.456(2) 0.1953(16) 0.038(5) Uani 1 1 d . . . . .

loop_
  _atom_site_aniso_label
  _atom_site_aniso_U_11
  _atom_site_aniso_U_22
  _atom_site_aniso_U_33
  _atom_site_aniso_U_23
  _atom_site_aniso_U_13
  _atom_site_aniso_U_12
 Th1 0.0225(4) 0.0226(4) 0.0226(4) 0.0016(3) -0.0078(3) -0.0091(3)
 Th2 0.0245(5) 0.0288(5) 0.0227(4) 0.0004(3) -0.0080(3) -0.0095(4)
 Th3 0.0259(5) 0.0242(4) 0.0234(4) 0.0015(3) -0.0083(3) -0.0103(3)
 Th4 0.0227(4) 0.0225(4) 0.0229(4) 0.0007(3) -0.0073(3) -0.0087(3)
 S1 0.028(3) 0.021(3) 0.032(3) -0.002(2) -0.015(2) -0.005(2)
 S2 0.023(3) 0.035(3) 0.048(4) 0.002(3) -0.007(3) -0.014(3)
 S3 0.027(3) 0.028(3) 0.028(3) 0.001(2) -0.013(2) -0.005(2)
 S4 0.028(3) 0.027(3) 0.029(3) 0.003(2) -0.012(2) -0.014(3)
 S5 0.024(3) 0.028(3) 0.028(3) 0.002(2) -0.006(2) -0.011(3)
 S6 0.026(3) 0.022(3) 0.032(3) 0.000(2) -0.011(2) -0.005(2)
 S7 0.028(3) 0.032(3) 0.021(3) 0.002(2) -0.008(2) -0.011(3)
 O1 0.013(8) 0.015(8) 0.070(12) 0.007(8) -0.015(8) -0.002(7)
 O3 0.038(11) 0.039(11) 0.048(11) -0.009(9) 0.003(9) -0.019(10)
 O4 0.038(11) 0.026(9) 0.026(8) -0.004(7) 0.014(7) -0.014(8)
 O6 0.046(12) 0.035(10) 0.037(10) -0.001(8) -0.021(8) -0.013(9)
 O7 0.029(10) 0.040(11) 0.045(11) -0.001(8) -0.012(8) -0.004(9)
 O10 0.029(11) 0.058(14) 0.043(11) -0.015(10) -0.007(8) -0.004(10)
 O11 0.069(14) 0.030(10) 0.026(9) 0.014(7) -0.032(9) -0.022(10)
 O12 0.026(10) 0.023(9) 0.057(12) -0.003(8) -0.021(8) 0.003(8)
 O13 0.043(11) 0.023(9) 0.022(8) 0.008(6) -0.017(7) -0.006(8)
 O14 0.011(8) 0.014(8) 0.049(10) -0.004(7) -0.012(7) 0.000(6)
 O15 0.032(11) 0.027(10) 0.056(12) -0.010(8) -0.013(9) 0.001(8)
 O16 0.038(10) 0.029(9) 0.011(7) 0.002(6) -0.005(6) -0.014(8)
 O20 0.043(12) 0.044(12) 0.040(10) 0.010(8) -0.023(9) -0.017(10)
 O21 0.03(2) 0.07(3) 0.05(2) 0.02(2) -0.007(18) -0.04(2)
 O22 0.046(12) 0.050(12) 0.050(11) 0.000(9) -0.025(9) -0.038(11)
 O23 0.034(11) 0.047(12) 0.048(12) 0.022(9) -0.020(9) -0.005(10)
 O25 0.05(3) 0.04(3) 0.07(3) -0.01(2) 0.01(2) -0.03(3)
 O26 0.028(10) 0.038(10) 0.036(9) -0.003(7) -0.004(7) -0.022(9)
 O27 0.039(11) 0.036(11) 0.043(11) -0.001(8) -0.002(8) -0.017(9)
 O28 0.046(11) 0.038(11) 0.025(8) -0.009(7) -0.006(8) -0.023(9)
 O29 0.035(11) 0.045(12) 0.046(11) 0.004(9) -0.014(8) -0.018(10)
 O30 0.033(11) 0.063(14) 0.035(10) -0.027(9) -0.005(8) -0.015(10)
 O31 0.045(11) 0.046(11) 0.006(7) -0.002(6) -0.009(6) -0.023(9)
 O32 0.019(10) 0.064(15) 0.056(12) 0.010(10) -0.019(9) -0.010(10)
 O33 0.020(9) 0.038(10) 0.040(10) -0.012(8) -0.017(7) -0.003(8)
 O34 0.019(9) 0.055(13) 0.029(9) -0.006(8) -0.006(7) 0.000(9)
 O35 0.05(3) 0.04(2) 0.09(4) -0.02(2) -0.05(3) 0.00(2)
 O36 0.046(12) 0.039(11) 0.037(10) 0.006(8) -0.021(9) -0.010(10)
 O38 0.037(11) 0.042(11) 0.032(9) -0.001(8) -0.009(8) -0.021(9)
 O40 0.062(14) 0.040(11) 0.040(10) 0.013(8) -0.024(9) -0.032(11)
 O42 0.062(14) 0.040(11) 0.021(8) -0.007(7) -0.011(8) -0.024(10)
 O43 0.06(3) 0.013(19) 0.09(4) -0.01(2) -0.03(3) 0.00(2)
 O44 0.040(11) 0.037(11) 0.029(9) -0.002(8) 0.001(8) -0.015(9)
 N1 0.042(14) 0.052(15) 0.027(11) 0.004(10) 0.001(9) -0.031(13)
 N2 0.039(14) 0.035(13) 0.046(13) 0.009(10) -0.016(10) -0.021(11)
 N3 0.036(14) 0.067(18) 0.046(14) 0.011(12) -0.016(11) -0.031(14)
 N4 0.046(14) 0.030(12) 0.034(12) 0.004(9) -0.004(10) -0.018(11)

_geom_special_details
;
 All esds (except the esd in the dihedral angle between two l.s. planes)
 are estimated using the full covariance matrix.  The cell esds are taken
 into account individually in the estimation of esds in distances, angles
 and torsion angles; correlations between esds in cell parameters are only
 used when they are defined by crystal symmetry.  An approximate (isotropic)
 treatment of cell esds is used for estimating esds involving l.s. planes.
;
loop_
  _geom_bond_atom_site_label_1
  _geom_bond_atom_site_label_2
  _geom_bond_distance
  _geom_bond_site_symmetry_2
  _geom_bond_publ_flag
 Th1 Th3 3.9309(11) 2_656 ?
 Th1 Th3 3.9228(11) . ?
 Th1 Th4 4.0173(11) 2_656 ?
 Th1 Th4 3.9677(10) . ?
 Th1 O2 2.28(3) 2_656 ?
 Th1 O5 2.50(3) . ?
 Th1 O6 2.45(2) . ?
 Th1 O9 2.59(3) . ?
 Th1 O16 2.430(14) . ?
 Th1 O18 2.56(3) 2_656 ?
 Th1 O19 2.53(3) 2_656 ?
 Th1 O22 2.49(2) . ?
 Th1 O31 2.698(17) . ?
 Th1 O37 2.31(3) . ?
 Th1 O39 2.34(3) 2_656 ?
 Th1 O41 2.32(3) . ?
 Th1 O42 2.418(19) . ?
 Th2 O1 2.51(2) 1_556 ?
 Th2 O3 2.36(2) 2_656 ?
 Th2 O4 2.44(2) 2_656 ?
 Th2 O7 2.41(2) 2_657 ?
 Th2 O15 2.47(2) . ?
 Th2 O23 2.329(19) . ?
 Th2 O27 2.50(2) . ?
 Th2 O29 2.61(2) . ?
 Th2 O44 2.390(19) . ?
 Th3 Th4 3.9312(12) . ?
 Th3 Th4 3.9185(11) 2_656 ?
 Th3 O2 2.35(3) . ?
 Th3 O5 2.40(3) . ?
 Th3 O8 2.521(17) . ?
 Th3 O9 2.47(3) . ?
 Th3 O14 2.520(17) . ?
 Th3 O17 2.96(3) . ?
 Th3 O18 2.48(3) . ?
 Th3 O19 2.44(3) . ?
 Th3 O24 2.481(19) . ?
 Th3 O26 2.50(2) 2_656 ?
 Th3 O37 2.26(3) . ?
 Th3 O39 2.27(3) . ?
 Th3 O41 2.29(3) . ?
 Th4 O2 2.29(3) . ?
 Th4 O5 2.56(3) . ?
 Th4 O9 2.43(3) 2_656 ?
 Th4 O10 2.46(2) 2_656 ?
 Th4 O11 2.434(18) . ?
 Th4 O12 2.478(19) . ?
 Th4 O13 2.463(15) 2_656 ?
 Th4 O18 2.47(3) 2_656 ?
 Th4 O19 2.52(3) . ?
 Th4 O33 2.701(17) . ?
 Th4 O37 2.31(3) . ?
 Th4 O39 2.29(3) 2_656 ?
 Th4 O41 2.35(3) 2_656 ?
 S1 O3 1.46(2) . ?
 S1 O22 1.489(17) . ?
 S1 O26 1.454(19) . ?
 S1 O36 1.45(2) . ?
 S2 O10 1.44(2) . ?
 S2 O21 1.53(4) . ?
 S2 O24 1.46(2) . ?
 S2 O25 1.46(5) . ?
 S2 O35 1.43(5) . ?
 S2 O43 1.57(5) . ?
 S3 O7 1.47(2) . ?
 S3 O20 1.44(2) . ?
 S3 O30 1.465(18) . ?
 S3 O44 1.49(2) . ?
 S4 O8 1.430(19) . ?
 S4 O12 1.48(2) . ?
 S4 O23 1.481(19) . ?
 S4 O28 1.417(19) . ?
 S5 O6 1.47(2) . ?
 S5 O14 1.432(18) . ?
 S5 O34 1.472(19) . ?
 S5 O40 1.43(2) . ?
 S6 O11 1.484(17) . ?
 S6 O32 1.47(2) . ?
 S6 O38 1.44(2) . ?
 S6 O42 1.487(18) . ?
 S7 O1 1.46(2) . ?
 S7 O4 1.44(2) . ?
 S7 O13 1.461(17) . ?
 S7 O16 1.481(17) . ?
 O17 O17 0.91(5) 2_756 ?
 O25 O35 1.58(8) . ?

loop_
  _geom_angle_atom_site_label_1
  _geom_angle_atom_site_label_2
  _geom_angle_atom_site_label_3
  _geom_angle
  _geom_angle_site_symmetry_1
  _geom_angle_site_symmetry_3
  _geom_angle_publ_flag
 Th3 Th1 Th3 88.01(2) . 2_656 ?
 Th3 Th1 Th4 59.13(2) . 2_656 ?
 Th3 Th1 Th4 59.27(2) 2_656 2_656 ?
 Th3 Th1 Th4 59.76(2) . . ?
 Th3 Th1 Th4 59.482(19) 2_656 . ?
 Th4 Th1 Th4 89.94(2) . 2_656 ?
 O2 Th1 Th3 77.1(8) 2_656 . ?
 O2 Th1 Th4 80.5(7) 2_656 . ?
 O2 Th1 O6 133.9(9) 2_656 . ?
 O2 Th1 O9 63.5(10) 2_656 . ?
 O2 Th1 O16 81.1(8) 2_656 . ?
 O2 Th1 O22 86.2(9) 2_656 . ?
 O2 Th1 O31 134.8(9) 2_656 . ?
 O2 Th1 O37 83.6(12) 2_656 . ?
 O2 Th1 O42 142.8(8) 2_656 . ?
 O5 Th1 Th3 35.9(7) . . ?
 O5 Th1 Th3 93.2(7) . 2_656 ?
 O5 Th1 Th4 91.9(7) . 2_656 ?
 O5 Th1 Th4 38.8(7) . . ?
 O5 Th1 O18 75.6(10) . 2_656 ?
 O5 Th1 O19 116.4(11) . 2_656 ?
 O5 Th1 O31 124.5(8) . . ?
 O6 Th1 Th3 68.6(4) . . ?
 O6 Th1 Th3 156.6(4) . 2_656 ?
 O6 Th1 Th4 106.1(4) . . ?
 O6 Th1 Th4 105.5(5) . 2_656 ?
 O6 Th1 O5 68.2(8) . . ?
 O6 Th1 O9 70.5(8) . . ?
 O6 Th1 O18 139.2(8) . 2_656 ?
 O6 Th1 O19 139.1(8) . 2_656 ?
 O6 Th1 O22 133.9(6) . . ?
 O6 Th1 O31 68.9(6) . . ?
 O9 Th1 Th3 38.0(6) . . ?
 O9 Th1 Th4 93.6(7) . . ?
 O9 Th1 O31 121.3(8) . . ?
 O16 Th1 Th3 106.1(4) . 2_656 ?
 O16 Th1 Th3 109.8(4) . . ?
 O16 Th1 Th4 70.8(4) . 2_656 ?
 O16 Th1 Th4 160.5(4) . . ?
 O16 Th1 O5 140.9(8) . . ?
 O16 Th1 O6 82.6(6) . . ?
 O16 Th1 O9 72.6(8) . . ?
 O16 Th1 O18 138.2(7) . 2_656 ?
 O16 Th1 O19 70.1(8) . 2_656 ?
 O16 Th1 O22 83.1(6) . . ?
 O16 Th1 O31 61.9(5) . . ?
 O18 Th1 Th3 92.8(7) 2_656 . ?
 O18 Th1 Th4 37.1(7) 2_656 . ?
 O18 Th1 O9 116.7(10) 2_656 . ?
 O18 Th1 O31 121.8(8) 2_656 . ?
 O19 Th1 Th3 37.0(6) 2_656 2_656 ?
 O19 Th1 Th3 92.2(7) 2_656 . ?
 O19 Th1 Th4 37.3(7) 2_656 2_656 ?
 O19 Th1 Th4 93.0(7) 2_656 . ?
 O19 Th1 O18 74.4(9) 2_656 2_656 ?
 O19 Th1 O31 119.0(8) 2_656 . ?
 O22 Th1 Th3 156.7(5) . . ?
 O22 Th1 Th3 69.4(5) . 2_656 ?
 O22 Th1 Th4 101.8(5) . . ?
 O22 Th1 Th4 110.6(4) . 2_656 ?
 O22 Th1 O5 136.0(8) . . ?
 O22 Th1 O9 143.3(8) . . ?
 O22 Th1 O18 65.9(8) . 2_656 ?
 O22 Th1 O19 73.6(9) . 2_656 ?
 O22 Th1 O31 65.7(6) . . ?
 O31 Th1 Th3 137.4(4) . . ?
 O31 Th1 Th3 134.5(4) . 2_656 ?
 O31 Th1 Th4 132.7(3) . 2_656 ?
 O31 Th1 Th4 137.4(4) . . ?
 O37 Th1 Th3 30.4(7) . . ?
 O37 Th1 Th4 30.6(7) . . ?
 O37 Th1 O6 82.0(9) . . ?
 O37 Th1 O9 67.6(10) . . ?
 O37 Th1 O16 140.1(8) . . ?
 O37 Th1 O22 132.4(9) . . ?
 O37 Th1 O31 141.5(9) . . ?
 O37 Th1 O42 84.1(9) . . ?
 O39 Th1 Th3 30.9(7) 2_656 2_656 ?
 O39 Th1 Th3 79.4(8) 2_656 . ?
 O39 Th1 Th4 30.8(7) 2_656 . ?
 O39 Th1 Th4 80.2(8) 2_656 2_656 ?
 O39 Th1 O5 68.8(10) 2_656 . ?
 O39 Th1 O6 136.8(8) 2_656 . ?
 O39 Th1 O16 137.0(8) 2_656 . ?
 O39 Th1 O18 15.5(8) 2_656 2_656 ?
 O39 Th1 O19 67.5(10) 2_656 2_656 ?
 O39 Th1 O22 78.1(9) 2_656 . ?
 O39 Th1 O31 137.2(9) 2_656 . ?
 O39 Th1 O42 84.5(9) 2_656 . ?
 O41 Th1 Th3 31.5(7) . . ?
 O41 Th1 Th3 80.3(8) . 2_656 ?
 O41 Th1 Th4 82.0(8) . . ?
 O41 Th1 Th4 30.7(7) . 2_656 ?
 O41 Th1 O5 67.3(10) . . ?
 O41 Th1 O6 79.3(9) . . ?
 O41 Th1 O16 82.6(9) . . ?
 O41 Th1 O18 103.9(11) . 2_656 ?
 O41 Th1 O19 67.7(10) . 2_656 ?
 O41 Th1 O22 141.2(9) . . ?
 O41 Th1 O31 134.2(9) . . ?
 O41 Th1 O39 88.4(12) . 2_656 ?
 O41 Th1 O42 138.6(9) . . ?
 O42 Th1 Th3 110.3(5) . 2_656 ?
 O42 Th1 Th3 107.3(5) . . ?
 O42 Th1 Th4 161.1(4) . 2_656 ?
 O42 Th1 Th4 71.3(4) . . ?
 O42 Th1 O5 72.2(9) . . ?
 O42 Th1 O6 78.5(7) . . ?
 O42 Th1 O9 140.1(8) . . ?
 O42 Th1 O16 128.0(6) . . ?
 O42 Th1 O18 72.9(8) . 2_656 ?
 O42 Th1 O19 142.5(8) . 2_656 ?
 O42 Th1 O22 76.6(7) . . ?
 O42 Th1 O31 66.2(5) . . ?
 O1 Th2 O29 118.5(6) 1_556 . ?
 O3 Th2 O1 141.2(7) 2_656 1_556 ?
 O3 Th2 O4 74.7(7) 2_656 2_656 ?
 O3 Th2 O7 75.1(7) 2_656 2_657 ?
 O3 Th2 O15 82.4(7) 2_656 . ?
 O3 Th2 O27 133.8(7) 2_656 . ?
 O3 Th2 O29 67.6(7) 2_656 . ?
 O3 Th2 O44 142.6(8) 2_656 . ?
 O4 Th2 O1 111.0(5) 2_656 1_556 ?
 O4 Th2 O15 138.9(7) 2_656 . ?
 O4 Th2 O27 138.6(6) 2_656 . ?
 O4 Th2 O29 130.5(6) 2_656 . ?
 O7 Th2 O1 71.1(6) 2_657 1_556 ?
 O7 Th2 O4 71.6(6) 2_657 2_656 ?
 O7 Th2 O15 69.7(7) 2_657 . ?
 O7 Th2 O27 135.9(7) 2_657 . ?
 O7 Th2 O29 124.7(7) 2_657 . ?
 O15 Th2 O1 68.5(6) . 1_556 ?
 O15 Th2 O27 81.1(7) . . ?
 O15 Th2 O29 66.2(7) . . ?
 O23 Th2 O1 139.8(7) . 1_556 ?
 O23 Th2 O3 78.9(8) . 2_656 ?
 O23 Th2 O4 76.3(7) . 2_656 ?
 O23 Th2 O7 142.9(8) . 2_657 ?
 O23 Th2 O15 132.2(7) . . ?
 O23 Th2 O27 81.1(8) . . ?
 O23 Th2 O29 66.0(7) . . ?
 O23 Th2 O44 77.3(7) . . ?
 O27 Th2 O1 67.7(6) . 1_556 ?
 O27 Th2 O29 66.2(6) . . ?
 O44 Th2 O1 68.7(6) . 1_556 ?
 O44 Th2 O4 72.0(6) . 2_656 ?
 O44 Th2 O7 109.1(7) . 2_657 ?
 O44 Th2 O15 134.6(7) . . ?
 O44 Th2 O27 69.5(7) . . ?
 O44 Th2 O29 125.5(7) . . ?
 Th1 Th3 Th1 91.99(2) . 2_656 ?
 Th1 Th3 Th4 60.69(2) . . ?
 Th1 Th3 Th4 61.46(2) 2_656 . ?
 Th4 Th3 Th1 60.726(19) 2_656 2_656 ?
 Th4 Th3 Th1 61.64(2) 2_656 . ?
 Th4 Th3 Th4 91.93(2) 2_656 . ?
 O2 Th3 Th1 80.9(8) . . ?
 O2 Th3 Th4 31.6(7) . . ?
 O2 Th3 O8 85.7(8) . . ?
 O2 Th3 O9 103.5(11) . . ?
 O2 Th3 O14 141.0(8) . . ?
 O2 Th3 O17 134.3(10) . . ?
 O2 Th3 O18 70.3(10) . . ?
 O2 Th3 O24 143.5(8) . . ?
 O5 Th3 Th1 37.6(7) . . ?
 O5 Th3 Th1 96.6(8) . 2_656 ?
 O5 Th3 Th4 38.9(7) . . ?
 O5 Th3 Th4 95.9(7) . 2_656 ?
 O5 Th3 O8 72.6(8) . . ?
 O5 Th3 O14 72.2(8) . . ?
 O5 Th3 O17 120.8(10) . . ?
 O5 Th3 O19 76.6(10) . . ?
 O5 Th3 O24 138.4(8) . . ?
 O5 Th3 O26 141.7(8) . 2_656 ?
 O8 Th3 Th1 109.7(4) . 2_656 ?
 O8 Th3 Th1 109.3(4) . . ?
 O8 Th3 Th4 72.9(4) . . ?
 O8 Th3 Th4 164.8(4) . 2_656 ?
 O8 Th3 O17 60.8(7) . . ?
 O9 Th3 Th1 40.2(7) . . ?
 O9 Th3 Th4 96.4(8) . . ?
 O9 Th3 O8 143.2(8) . . ?
 O9 Th3 O14 76.4(8) . . ?
 O9 Th3 O17 122.0(10) . . ?
 O9 Th3 O18 73.2(10) . . ?
 O9 Th3 O24 71.3(9) . . ?
 O14 Th3 Th1 166.6(4) . 2_656 ?
 O14 Th3 Th1 74.7(4) . . ?
 O14 Th3 Th4 112.1(4) . 2_656 ?
 O14 Th3 Th4 109.5(4) . . ?
 O14 Th3 O8 74.5(6) . . ?
 O14 Th3 O17 62.1(7) . . ?
 O17 Th3 Th1 136.8(6) . . ?
 O17 Th3 Th1 131.2(6) . 2_656 ?
 O17 Th3 Th4 133.6(6) . . ?
 O17 Th3 Th4 134.4(6) . 2_656 ?
 O18 Th3 Th1 96.1(7) . . ?
 O18 Th3 Th4 97.1(7) . . ?
 O18 Th3 O8 141.9(7) . . ?
 O18 Th3 O14 141.4(7) . . ?
 O18 Th3 O17 117.1(10) . . ?
 O18 Th3 O24 73.8(9) . . ?
 O19 Th3 Th1 38.7(7) . 2_656 ?
 O19 Th3 Th1 95.5(8) . . ?
 O19 Th3 Th4 95.7(7) . 2_656 ?
 O19 Th3 Th4 38.4(7) . . ?
 O19 Th3 O8 72.3(8) . . ?
 O19 Th3 O14 139.7(8) . . ?
 O19 Th3 O17 117.2(9) . . ?
 O19 Th3 O24 143.5(8) . . ?
 O19 Th3 O26 73.7(8) . 2_656 ?
 O24 Th3 Th1 109.3(4) . . ?
 O24 Th3 Th1 112.1(5) . 2_656 ?
 O24 Th3 Th4 166.3(4) . . ?
 O24 Th3 Th4 74.6(4) . 2_656 ?
 O24 Th3 O8 120.6(6) . . ?
 O24 Th3 O14 74.4(6) . . ?
 O24 Th3 O17 60.1(7) . . ?
 O24 Th3 O26 77.1(6) . 2_656 ?
 O26 Th3 Th1 166.6(4) 2_656 . ?
 O26 Th3 Th1 74.6(4) 2_656 2_656 ?
 O26 Th3 Th4 110.7(4) 2_656 . ?
 O26 Th3 Th4 110.6(4) 2_656 2_656 ?
 O26 Th3 O8 75.5(6) 2_656 . ?
 O26 Th3 O14 118.7(5) 2_656 . ?
 O26 Th3 O17 56.6(7) 2_656 . ?
 O37 Th3 Th1 31.1(7) . . ?
 O37 Th3 Th4 30.9(7) . . ?
 O37 Th3 O2 57.9(11) . . ?
 O37 Th3 O8 85.8(9) . . ?
 O37 Th3 O9 70.4(10) . . ?
 O37 Th3 O14 86.9(9) . . ?
 O37 Th3 O17 138.5(10) . . ?
 O37 Th3 O18 104.3(12) . . ?
 O37 Th3 O24 140.4(8) . . ?
 O39 Th3 Th1 32.0(7) . 2_656 ?
 O39 Th3 Th1 82.6(8) . . ?
 O39 Th3 Th4 83.0(8) . . ?
 O39 Th3 Th4 31.0(7) . 2_656 ?
 O39 Th3 O5 106.1(12) . . ?
 O39 Th3 O8 141.6(8) . . ?
 O39 Th3 O14 143.0(8) . . ?
 O39 Th3 O17 133.1(11) . . ?
 O39 Th3 O19 70.3(10) . . ?
 O39 Th3 O24 86.5(9) . . ?
 O39 Th3 O26 86.2(9) . 2_656 ?
 O39 Th3 O41 60.9(11) . . ?
 O41 Th3 Th1 83.7(8) . 2_656 ?
 O41 Th3 Th1 31.9(8) . . ?
 O41 Th3 Th4 32.8(7) . 2_656 ?
 O41 Th3 Th4 83.1(8) . . ?
 O41 Th3 O5 69.3(10) . . ?
 O41 Th3 O8 140.9(9) . . ?
 O41 Th3 O14 85.5(8) . . ?
 O41 Th3 O17 136.0(10) . . ?
 O41 Th3 O19 106.8(11) . . ?
 O41 Th3 O24 84.1(9) . . ?
 O41 Th3 O26 143.0(8) . 2_656 ?
 Th1 Th4 Th1 90.06(2) . 2_656 ?
 Th3 Th4 Th1 59.55(2) . . ?
 Th3 Th4 Th1 59.792(19) 2_656 . ?
 Th3 Th4 Th1 59.23(2) 2_656 2_656 ?
 Th3 Th4 Th1 59.27(2) . 2_656 ?
 Th3 Th4 Th3 88.06(2) 2_656 . ?
 O2 Th4 Th1 80.6(8) . . ?
 O2 Th4 Th3 32.6(7) . . ?
 O2 Th4 O11 139.6(9) . . ?
 O2 Th4 O12 85.7(9) . . ?
 O2 Th4 O33 135.0(9) . . ?
 O2 Th4 O37 58.2(11) . . ?
 O2 Th4 O41 55.6(11) . 2_656 ?
 O5 Th4 Th1 37.7(7) . . ?
 O5 Th4 Th1 92.0(7) . 2_656 ?
 O5 Th4 Th3 92.5(7) . 2_656 ?
 O5 Th4 Th3 36.1(7) . . ?
 O5 Th4 O33 125.1(8) . . ?
 O9 Th4 Th1 93.9(7) 2_656 . ?
 O9 Th4 Th3 93.4(8) 2_656 . ?
 O9 Th4 O12 143.0(8) 2_656 . ?
 O9 Th4 O33 117.7(9) 2_656 . ?
 O10 Th4 Th1 108.2(6) 2_656 2_656 ?
 O10 Th4 Th1 105.4(5) 2_656 . ?
 O10 Th4 Th3 158.0(5) 2_656 . ?
 O10 Th4 Th3 70.0(5) 2_656 2_656 ?
 O10 Th4 O5 139.2(8) 2_656 . ?
 O10 Th4 O12 131.2(7) 2_656 . ?
 O10 Th4 O13 83.6(7) 2_656 2_656 ?
 O10 Th4 O18 67.6(9) 2_656 2_656 ?
 O10 Th4 O19 141.9(9) 2_656 . ?
 O10 Th4 O33 65.7(6) 2_656 . ?
 O11 Th4 Th1 160.7(4) . 2_656 ?
 O11 Th4 Th1 70.7(4) . . ?
 O11 Th4 Th3 107.0(5) . . ?
 O11 Th4 Th3 109.9(4) . 2_656 ?
 O11 Th4 O5 71.8(9) . . ?
 O11 Th4 O9 141.6(9) . 2_656 ?
 O11 Th4 O10 79.9(8) . 2_656 ?
 O11 Th4 O12 75.3(6) . . ?
 O11 Th4 O13 128.9(6) . 2_656 ?
 O11 Th4 O18 72.5(8) . 2_656 ?
 O11 Th4 O19 138.2(8) . . ?
 O11 Th4 O33 67.9(6) . . ?
 O12 Th4 Th1 109.1(4) . 2_656 ?
 O12 Th4 Th1 105.0(5) . . ?
 O12 Th4 Th3 158.5(4) . 2_656 ?
 O12 Th4 Th3 70.6(4) . . ?
 O12 Th4 O5 68.8(8) . . ?
 O12 Th4 O19 72.2(8) . . ?
 O12 Th4 O33 66.1(6) . . ?
 O13 Th4 Th1 160.1(4) 2_656 . ?
 O13 Th4 Th1 70.2(4) 2_656 2_656 ?
 O13 Th4 Th3 108.9(4) 2_656 2_656 ?
 O13 Th4 Th3 106.2(4) 2_656 . ?
 O13 Th4 O5 137.2(8) 2_656 . ?
 O13 Th4 O12 80.5(7) 2_656 . ?
 O13 Th4 O18 141.1(8) 2_656 2_656 ?
 O13 Th4 O19 70.1(8) 2_656 . ?
 O13 Th4 O33 61.2(6) 2_656 . ?
 O18 Th4 Th1 38.7(7) 2_656 . ?
 O18 Th4 Th3 94.1(8) 2_656 . ?
 O18 Th4 O12 138.2(8) 2_656 . ?
 O18 Th4 O33 122.5(9) 2_656 . ?
 O19 Th4 Th1 37.5(7) . 2_656 ?
 O19 Th4 Th1 93.1(7) . . ?
 O19 Th4 Th3 36.9(6) . . ?
 O19 Th4 Th3 92.5(7) . 2_656 ?
 O19 Th4 O5 72.4(9) . . ?
 O19 Th4 O33 119.2(8) . . ?
 O33 Th4 Th1 131.3(4) . 2_656 ?
 O33 Th4 Th1 138.6(4) . . ?
 O33 Th4 Th3 136.3(4) . . ?
 O33 Th4 Th3 135.4(4) . 2_656 ?
 O37 Th4 Th1 30.6(7) . . ?
 O37 Th4 Th3 30.2(7) . . ?
 O37 Th4 O11 83.8(9) . . ?
 O37 Th4 O12 82.2(9) . . ?
 O37 Th4 O33 141.5(9) . . ?
 O37 Th4 O41 86.3(12) . 2_656 ?
 O39 Th4 Th1 31.5(7) 2_656 . ?
 O39 Th4 Th1 80.1(8) 2_656 2_656 ?
 O39 Th4 Th3 79.7(8) 2_656 . ?
 O39 Th4 Th3 30.6(7) 2_656 2_656 ?
 O39 Th4 O5 68.4(10) 2_656 . ?
 O39 Th4 O9 67.6(10) 2_656 2_656 ?
 O39 Th4 O10 80.2(9) 2_656 2_656 ?
 O39 Th4 O11 84.2(9) 2_656 . ?
 O39 Th4 O12 136.5(9) 2_656 . ?
 O39 Th4 O13 139.5(8) 2_656 2_656 ?
 O39 Th4 O18 16.2(8) 2_656 2_656 ?
 O39 Th4 O19 102.0(11) 2_656 . ?
 O39 Th4 O33 138.7(9) 2_656 . ?
 O39 Th4 O41 59.7(11) 2_656 2_656 ?
 O41 Th4 Th1 82.2(8) 2_656 . ?
 O41 Th4 Th1 30.3(8) 2_656 2_656 ?
 O41 Th4 Th3 80.0(8) 2_656 . ?
 O41 Th4 Th3 32.0(7) 2_656 2_656 ?
 O41 Th4 O5 102.6(11) 2_656 . ?
 O41 Th4 O9 14.6(8) 2_656 2_656 ?
 O41 Th4 O10 82.1(10) 2_656 2_656 ?
 O41 Th4 O11 141.8(8) 2_656 . ?
 O41 Th4 O12 139.4(9) 2_656 . ?
 O41 Th4 O13 81.5(8) 2_656 2_656 ?
 O41 Th4 O18 69.6(10) 2_656 2_656 ?
 O41 Th4 O19 67.5(10) 2_656 . ?
 O41 Th4 O33 132.0(9) 2_656 . ?
 O3 S1 O22 108.3(12) . . ?
 O26 S1 O3 108.7(12) . . ?
 O26 S1 O22 109.9(11) . . ?
 O36 S1 O3 110.4(13) . . ?
 O36 S1 O22 110.9(13) . . ?
 O36 S1 O26 108.5(12) . . ?
 O10 S2 O21 98.0(19) . . ?
 O10 S2 O24 113.4(12) . . ?
 O10 S2 O25 125(2) . . ?
 O10 S2 O43 100(2) . . ?
 O21 S2 O43 154(3) . . ?
 O24 S2 O21 99(2) . . ?
 O24 S2 O43 90.5(18) . . ?
 O25 S2 O24 111(2) . . ?
 O35 S2 O10 117(2) . . ?
 O35 S2 O24 115.5(19) . . ?
 O35 S2 O25 66(3) . . ?
 O7 S3 O44 109.1(11) . . ?
 O20 S3 O7 108.6(12) . . ?
 O20 S3 O30 110.5(13) . . ?
 O20 S3 O44 111.4(12) . . ?
 O30 S3 O7 110.3(12) . . ?
 O30 S3 O44 106.9(12) . . ?
 O8 S4 O12 108.8(11) . . ?
 O8 S4 O23 105.2(12) . . ?
 O23 S4 O12 109.7(12) . . ?
 O28 S4 O8 110.6(11) . . ?
 O28 S4 O12 111.5(12) . . ?
 O28 S4 O23 110.8(13) . . ?
 O6 S5 O34 110.4(11) . . ?
 O14 S5 O6 109.5(10) . . ?
 O14 S5 O34 105.2(11) . . ?
 O14 S5 O40 109.3(11) . . ?
 O40 S5 O6 111.2(13) . . ?
 O40 S5 O34 111.1(13) . . ?
 O11 S6 O42 107.0(12) . . ?
 O32 S6 O11 110.3(13) . . ?
 O32 S6 O42 109.0(13) . . ?
 O38 S6 O11 109.9(11) . . ?
 O38 S6 O32 110.1(13) . . ?
 O38 S6 O42 110.5(11) . . ?
 O1 S7 O13 108.9(11) . . ?
 O1 S7 O16 109.3(10) . . ?
 O4 S7 O1 110.0(10) . . ?
 O4 S7 O13 109.9(11) . . ?
 O4 S7 O16 110.6(11) . . ?
 O13 S7 O16 108.1(10) . . ?
 S7 O1 Th2 127.6(10) . 1_554 ?
 Th1 O2 Th3 116.0(12) 2_656 . ?
 Th1 O2 Th4 123.1(13) 2_656 . ?
 Th4 O2 Th3 115.8(12) . . ?
 S1 O3 Th2 166.2(13) . 2_656 ?
 S7 O4 Th2 168.3(10) . 2_656 ?
 Th1 O5 Th4 103.5(11) . . ?
 Th3 O5 Th1 106.5(11) . . ?
 Th3 O5 Th4 105.0(11) . . ?
 S5 O6 Th1 149.2(12) . . ?
 S3 O7 Th2 152.0(13) . 2_657 ?
 S4 O8 Th3 138.3(11) . . ?
 Th3 O9 Th1 101.7(11) . . ?
 Th4 O9 Th1 106.2(12) 2_656 . ?
 Th4 O9 Th3 106.1(11) 2_656 . ?
 S2 O10 Th4 145.1(13) . 2_656 ?
 S6 O11 Th4 144.4(11) . . ?
 S4 O12 Th4 140.6(11) . . ?
 S7 O13 Th4 142.4(11) . 2_656 ?
 S5 O14 Th3 136.6(9) . . ?
 S7 O16 Th1 142.7(9) . . ?
 O17 O17 Th3 164(4) 2_756 . ?
 Th3 O18 Th1 102.5(11) . 2_656 ?
 Th4 O18 Th1 104.2(11) 2_656 2_656 ?
 Th4 O18 Th3 104.7(11) 2_656 . ?
 Th3 O19 Th1 104.3(11) . 2_656 ?
 Th3 O19 Th4 104.7(11) . . ?
 Th4 O19 Th1 105.2(11) . 2_656 ?
 S1 O22 Th1 138.1(13) . . ?
 S4 O23 Th2 175.7(14) . . ?
 S2 O24 Th3 135.9(12) . . ?
 S2 O25 O35 56(3) . . ?
 S1 O26 Th3 134.6(10) . 2_656 ?
 S2 O35 O25 57(3) . . ?
 Th1 O37 Th4 118.7(13) . . ?
 Th3 O37 Th1 118.5(12) . . ?
 Th3 O37 Th4 118.9(12) . . ?
 Th3 O39 Th1 117.1(12) . 2_656 ?
 Th3 O39 Th4 118.4(12) . 2_656 ?
 Th4 O39 Th1 117.7(12) 2_656 2_656 ?
 Th1 O41 Th4 119.0(13) . 2_656 ?
 Th3 O41 Th1 116.6(13) . . ?
 Th3 O41 Th4 115.3(12) . 2_656 ?
 S6 O42 Th1 143.9(11) . . ?
 S3 O44 Th2 147.5(12) . . ?

loop_
  _geom_torsion_atom_site_label_1
  _geom_torsion_atom_site_label_2
  _geom_torsion_atom_site_label_3
  _geom_torsion_atom_site_label_4
  _geom_torsion
  _geom_torsion_site_symmetry_1
  _geom_torsion_site_symmetry_2
  _geom_torsion_site_symmetry_3
  _geom_torsion_site_symmetry_4
  _geom_torsion_publ_flag
 O1 S7 O4 Th2 -168(5) . . . 2_656 ?
 O1 S7 O13 Th4 149.7(17) . . . 2_656 ?
 O1 S7 O16 Th1 -147.4(16) . . . . ?
 O3 S1 O22 Th1 -68(2) . . . . ?
 O3 S1 O26 Th3 85.7(16) . . . 2_656 ?
 O4 S7 O1 Th2 0.1(15) . . . 1_554 ?
 O4 S7 O13 Th4 -89.8(19) . . . 2_656 ?
 O4 S7 O16 Th1 91.4(18) . . . . ?
 O6 S5 O14 Th3 15.9(17) . . . . ?
 O7 S3 O44 Th2 46(2) . . . . ?
 O8 S4 O12 Th4 40(2) . . . . ?
 O10 S2 O24 Th3 12(2) . . . . ?
 O10 S2 O25 O35 -108(3) . . . . ?
 O10 S2 O35 O25 119(3) . . . . ?
 O11 S6 O42 Th1 21(2) . . . . ?
 O12 S4 O8 Th3 -31.1(19) . . . . ?
 O13 S7 O1 Th2 120.6(12) . . . 1_554 ?
 O13 S7 O4 Th2 72(6) . . . 2_656 ?
 O13 S7 O16 Th1 -29(2) . . . . ?
 O14 S5 O6 Th1 -15(3) . . . . ?
 O16 S7 O1 Th2 -121.5(12) . . . 1_554 ?
 O16 S7 O4 Th2 -47(6) . . . 2_656 ?
 O16 S7 O13 Th4 31(2) . . . 2_656 ?
 O20 S3 O7 Th2 155(2) . . . 2_657 ?
 O20 S3 O44 Th2 -74(2) . . . . ?
 O21 S2 O10 Th4 -106(3) . . . 2_656 ?
 O21 S2 O24 Th3 115(2) . . . . ?
 O22 S1 O3 Th2 167(6) . . . 2_656 ?
 O22 S1 O26 Th3 -32.7(18) . . . 2_656 ?
 O23 S4 O8 Th3 86.4(18) . . . . ?
 O23 S4 O12 Th4 -75(2) . . . . ?
 O24 S2 O10 Th4 -2(3) . . . 2_656 ?
 O24 S2 O25 O35 110(2) . . . . ?
 O24 S2 O35 O25 -103(3) . . . . ?
 O25 S2 O10 Th4 -144(3) . . . 2_656 ?
 O25 S2 O24 Th3 159(3) . . . . ?
 O26 S1 O3 Th2 48(7) . . . 2_656 ?
 O26 S1 O22 Th1 51(2) . . . . ?
 O28 S4 O8 Th3 -153.9(15) . . . . ?
 O28 S4 O12 Th4 162.3(16) . . . . ?
 O30 S3 O7 Th2 -83(3) . . . 2_657 ?
 O30 S3 O44 Th2 165(2) . . . . ?
 O32 S6 O11 Th4 98(2) . . . . ?
 O32 S6 O42 Th1 -98(2) . . . . ?
 O34 S5 O6 Th1 100(2) . . . . ?
 O34 S5 O14 Th3 -102.8(15) . . . . ?
 O35 S2 O10 Th4 136(3) . . . 2_656 ?
 O35 S2 O24 Th3 -127(3) . . . . ?
 O36 S1 O3 Th2 -71(7) . . . 2_656 ?
 O36 S1 O22 Th1 171.1(15) . . . . ?
 O36 S1 O26 Th3 -154.1(14) . . . 2_656 ?
 O38 S6 O11 Th4 -140(2) . . . . ?
 O38 S6 O42 Th1 141(2) . . . . ?
 O40 S5 O6 Th1 -136(2) . . . . ?
 O40 S5 O14 Th3 137.9(14) . . . . ?
 O42 S6 O11 Th4 -20(3) . . . . ?
 O43 S2 O10 Th4 93(3) . . . 2_656 ?
 O43 S2 O24 Th3 -89(2) . . . . ?
 O44 S3 O7 Th2 34(3) . . . 2_657 ?

_smtbx_masks_special_details       ?
loop_
  _smtbx_masks_void_nr
  _smtbx_masks_void_average_x
  _smtbx_masks_void_average_y
  _smtbx_masks_void_average_z
  _smtbx_masks_void_volume
  _smtbx_masks_void_count_electrons
  _smtbx_masks_void_content
 1 -0.280 -0.517 0.000 410.8 69.6 ?

_smtbx_masks_void_probe_radius     1.2
_smtbx_masks_void_truncation_radius  1.2
_shelx_res_file
;
TITL nh4th-th6_a.res in P-1
    nh4th-th6.res
    created by SHELXL-2018/3 at 14:41:23 on 07-Mar-2022
REM Old TITL NH4Th-Th6 in P-1
REM SHELXT solution in P-1: R1 0.121, Rweak 0.011, Alpha 0.114
REM <I/s> 0.000 for 0 systematic absences, Orientation as input
REM Formula found by SHELXT: N43 O64 S14 Th8
CELL 1.54184 12.254875 13.134206 15.000101 81.8146 70.0277 66.1289
ZERR 1 0.000413 0.000462 0.000537 0.0029 0.0032 0.0033
LATT 1
SFAC N O S Th
UNIT 8 75 14 8
EADP O9 O41 O37 O5 O2 O19 O18 O39

L.S. 50 0 0
PLAN  41
SIZE 0.01 0.01 0.03
TEMP -100.15(10)
CONF
CONN 24 Th4
CONN 24 Th1
CONN 24 Th2
CONN 24 Th3
list 4
MORE -1
ABIN
fmap 2 53
acta
REM <olex2.extras>
REM <HklSrc "%./NH4Th-Th6.hkl">
REM </olex2.extras>

WGHT    0.137600  147.119003
FVAR       0.12195
TH1   4    0.476045    0.168035    0.359396    11.00000    0.02248    0.02257 =
         0.02261    0.00162   -0.00778   -0.00915
TH2   4    0.700764    0.002642    0.885718    11.00000    0.02445    0.02884 =
         0.02274    0.00039   -0.00801   -0.00947
TH3   4    0.723652    0.004891    0.491830    11.00000    0.02591    0.02417 =
         0.02337    0.00149   -0.00825   -0.01026
TH4   4    0.371649    0.166360    0.640628    11.00000    0.02274    0.02253 =
         0.02287    0.00070   -0.00730   -0.00867
S1    3    0.181785    0.189847    0.321595    11.00000    0.02776    0.02086 =
         0.03195   -0.00194   -0.01471   -0.00529
S2    3    0.962011   -0.206031    0.315116    11.00000    0.02311    0.03468 =
         0.04846    0.00240   -0.00717   -0.01397
S3    3    0.397014    0.233812    0.997804    11.00000    0.02681    0.02793 =
         0.02808    0.00109   -0.01256   -0.00507
S4    3    0.639151    0.201880    0.681550    11.00000    0.02831    0.02691 =
         0.02872    0.00325   -0.01246   -0.01400
S5    3    0.779431    0.211260    0.305817    11.00000    0.02434    0.02816 =
         0.02766    0.00229   -0.00590   -0.01078
S6    3    0.298451    0.430209    0.499374    11.00000    0.02616    0.02204 =
         0.03151    0.00028   -0.01140   -0.00505
S7    3    0.599826    0.001943    0.140234    11.00000    0.02779    0.03226 =
         0.02062    0.00171   -0.00777   -0.01090
O1    2    0.699128    0.004877    0.052997    11.00000    0.01251    0.01517 =
         0.06957    0.00682   -0.01548   -0.00206
PART 2
O2    2    0.541379    0.000909    0.611222    10.50000    0.01590
PART 0
O3    2    0.242012    0.121939    0.236141    11.00000    0.03792    0.03943 =
         0.04807   -0.00907    0.00324   -0.01921
O4    2    0.496875   -0.002837    0.117971    11.00000    0.03843    0.02574 =
         0.02567   -0.00415    0.01397   -0.01443
PART 1
O5    2    0.549424    0.177183    0.493096    10.50000    0.01590
PART 0
O6    2    0.654308    0.227048    0.305176    11.00000    0.04598    0.03534 =
         0.03654   -0.00081   -0.02141   -0.01330
O7    2    0.325909    0.161518    1.033302    11.00000    0.02856    0.04021 =
         0.04507   -0.00137   -0.01152   -0.00404
O8    2    0.723155    0.136441    0.599141    11.00000    0.03147
PART 2
O9    2    0.682646   -0.004341    0.343722    10.50000    0.01590
PART 0
O10   2    0.858457   -0.225790    0.306908    11.00000    0.02884    0.05827 =
         0.04279   -0.01509   -0.00674   -0.00433
O11   2    0.312327    0.357943    0.583657    11.00000    0.06890    0.03024 =
         0.02599    0.01420   -0.03197   -0.02165
O12   2    0.508310    0.237831    0.680053    11.00000    0.02603    0.02293 =
         0.05713   -0.00319   -0.02089    0.00252
O13   2    0.650637   -0.096180    0.195532    11.00000    0.04282    0.02319 =
         0.02191    0.00841   -0.01664   -0.00604
O14   2    0.808109    0.139046    0.382777    11.00000    0.01059    0.01433 =
         0.04907   -0.00416   -0.01161   -0.00015
O15   2    0.900541   -0.130987    0.908491    11.00000    0.03208    0.02741 =
         0.05613   -0.01015   -0.01303    0.00126
O16   2    0.557268    0.102097    0.197273    11.00000    0.03798    0.02926 =
         0.01089    0.00181   -0.00514   -0.01400
O17   2    0.966409    0.003160    0.491643    10.50000    0.02015
PART 2
O18   2    0.709640   -0.178192    0.491702    10.50000    0.01590
PART 1
O19   2    0.569311    0.002565    0.645944    10.50000    0.01590
PART 0
O20   2    0.360277    0.298352    0.919346    11.00000    0.04333    0.04392 =
         0.03983    0.00979   -0.02270   -0.01659
PART 1
O21   2    0.995880   -0.150379    0.218711    10.50000    0.03297    0.06661 =
         0.04894    0.02036   -0.00712   -0.03888
PART 0
O22   2    0.270178    0.236765    0.329635    11.00000    0.04626    0.05038 =
         0.04979    0.00045   -0.02452   -0.03773
O23   2    0.656767    0.125878    0.762940    11.00000    0.03365    0.04675 =
         0.04827    0.02224   -0.02023   -0.00459
O24   2    0.922753   -0.112517    0.376530    11.00000    0.03653
PART 2
O25   2    1.077494   -0.217017    0.238258    10.50000    0.04711    0.04478 =
         0.07384   -0.00754    0.00795   -0.02635
PART 0
O26   2    0.154548    0.119554    0.403349    11.00000    0.02806    0.03844 =
         0.03575   -0.00331   -0.00414   -0.02174
O27   2    0.785604    0.138234    0.907719    11.00000    0.03909    0.03625 =
         0.04251   -0.00089   -0.00227   -0.01695
O28   2    0.669203    0.294300    0.685312    11.00000    0.04606    0.03848 =
         0.02545   -0.00871   -0.00596   -0.02329
O29   2    0.900079    0.002749    0.747490    11.00000    0.03480    0.04520 =
         0.04571    0.00362   -0.01430   -0.01846
O30   2    0.372583    0.307152    1.073337    11.00000    0.03324    0.06268 =
         0.03483   -0.02744   -0.00474   -0.01506
O31   2    0.453127    0.320779    0.219066    11.00000    0.04528    0.04601 =
         0.00615   -0.00173   -0.00868   -0.02320
O32   2    0.166246    0.477633    0.501111    11.00000    0.01852    0.06401 =
         0.05591    0.01031   -0.01911   -0.00998
O33   2    0.249155    0.314060    0.784463    11.00000    0.01985    0.03832 =
         0.03971   -0.01216   -0.01651   -0.00343
O34   2    0.876154    0.152887    0.219549    11.00000    0.01931    0.05532 =
         0.02915   -0.00623   -0.00561   -0.00005
PART 2
O35   2    1.068740   -0.301652    0.324355    10.50000    0.04812    0.03821 =
         0.08886   -0.02159   -0.04628   -0.00262
PART 0
O36   2    0.064787    0.277652    0.317478    11.00000    0.04601    0.03922 =
         0.03700    0.00626   -0.02115   -0.00955
PART 2
O37   2    0.529774    0.130366    0.497023    10.50000    0.01590
PART 0
O38   2    0.341161    0.518369    0.497594    11.00000    0.03719    0.04214 =
         0.03186   -0.00125   -0.00903   -0.02053
PART 1
O39   2    0.654360   -0.132004    0.495010    10.50000    0.01590
PART 0
O40   2    0.785935    0.315399    0.315777    11.00000    0.06178    0.04041 =
         0.03988    0.01314   -0.02365   -0.03221
PART 1
O41   2    0.636335    0.004269    0.378940    10.50000    0.01590
PART 0
O42   2    0.376503    0.358399    0.414280    11.00000    0.06178    0.04007 =
         0.02133   -0.00680   -0.01059   -0.02411
PART 1
O43   2    0.992078   -0.290007    0.396868    10.50000    0.05905    0.01299 =
         0.08751   -0.01446   -0.02569   -0.00352
PART 0
O44   2    0.533964    0.163674    0.968562    11.00000    0.03956    0.03694 =
         0.02921   -0.00199    0.00131   -0.01481

N1    1    0.130103    0.724923    0.503184    11.00000    0.04246    0.05176 =
         0.02748    0.00353    0.00066   -0.03103
N2    1    0.931564   -0.237777    1.076547    11.00000    0.03929    0.03522 =
         0.04600    0.00896   -0.01597   -0.02131
N3    1    0.562120    0.511091    0.341059    11.00000    0.03606    0.06692 =
         0.04626    0.01113   -0.01620   -0.03052
N4    1    0.897108    0.456043    0.195280    11.00000    0.04575    0.03024 =
         0.03361    0.00427   -0.00363   -0.01773
HKLF 4




REM  nh4th-th6_a.res in P-1
REM wR2 = 0.2424, GooF = S = 1.086, Restrained GooF = 1.086 for all data
REM R1 = 0.0817 for 6350 Fo > 4sig(Fo) and 0.0925 for all 7321 data
REM 470 parameters refined using 0 restraints

END

WGHT      0.1376    147.0843

REM Highest difference peak  8.557,  deepest hole -4.425,  1-sigma level  0.719
Q1    1   0.5689  0.0036  0.4976  11.00000  0.05    8.56
Q2    1   0.6101 -0.0196  0.4991  11.00000  0.05    8.33
Q3    1   0.5311  0.1571  0.6349  11.00000  0.05    7.77
Q4    1   0.6434  0.1629  0.3566  11.00000  0.05    7.42
Q5    1   0.8019 -0.1751  0.3584  11.00000  0.05    6.82
Q6    1   0.8202  0.0017  0.8789  11.00000  0.05    6.74
Q7    1   0.3206  0.1749  0.3649  11.00000  0.05    6.72
Q8    1   0.8874  0.0002  0.4924  11.00000  0.05    6.60
Q9    1   0.7951  0.0263  0.4814  11.00000  0.05    4.48
Q10   1   0.9791 -0.1814  0.3614  11.00000  0.05    4.42
Q11   1   0.7000  0.1429  0.6514  11.00000  0.05    4.27
Q12   1   0.6381 -0.0251  0.8857  11.00000  0.05    4.15
Q13   1   0.4198  0.0742  0.6380  11.00000  0.05    4.08
Q14   1   0.4171  0.1391  0.3627  11.00000  0.05    3.98
Q15   1   0.5243  0.2065  0.3541  11.00000  0.05    3.75
Q16   1   0.4517 -0.0011  0.1048  11.00000  0.05    3.68
Q17   1   0.9703 -0.0022  0.8552  11.00000  0.05    3.62
Q18   1   0.4175  0.2585  0.3590  11.00000  0.05    3.60
Q19   1   0.5174  0.0901  0.3510  11.00000  0.05    3.59
Q20   1   0.3168  0.1375  0.6437  11.00000  0.05    3.55
Q21   1   0.6852  0.0169  0.1216  11.00000  0.05    3.41
Q22   1   0.8016 -0.0761  0.4806  11.00000  0.05    3.36
Q23   1   0.5033  0.1580  0.2812  11.00000  0.05    3.28
Q24   1   0.8639  0.1621  0.6561  11.00000  0.05    3.23
Q25   1  -0.0193  0.1594  0.3640  11.00000  0.05    3.15
Q26   1   0.7647 -0.0801  0.8799  11.00000  0.05    3.01
Q27   1   0.1435  0.1869  0.3606  11.00000  0.05    3.00
Q28   1   0.6950  0.0150  0.5633  11.00000  0.05    2.87
Q29   1   0.7533 -0.0004  0.4176  11.00000  0.05    2.86
Q30   1   0.5166 -0.0270  0.6479  11.00000  0.05    2.77
Q31   1   0.6467  0.1035  0.4996  11.00000  0.05    2.74
Q32   1   0.4241  0.2055  0.6360  11.00000  0.05    2.68
Q33   1   0.3268  0.2427  0.6465  11.00000  0.05    2.66
Q34   1   0.3470  0.1803  0.7125  11.00000  0.05    2.64
Q35   1   0.7197 -0.1162  0.4862  11.00000  0.05    2.62
Q36   1   0.6419  0.0941  0.8849  11.00000  0.05    2.52
Q37   1   0.8287  0.1601  0.3588  11.00000  0.05    2.51
Q38   1   0.6227 -0.1556  0.4981  11.00000  0.05    2.50
Q39   1   0.3761  0.2989  0.6400  11.00000  0.05    2.49
Q40   1   0.5407 -0.0319  0.1019  11.00000  0.05    2.37
Q41   1   0.7010 -0.0989  0.8789  11.00000  0.05    2.34
;
_shelx_res_checksum                84201
_shelx_hkl_file
;
   0   0  -1 3093.57   86.72
   0   0  -2  207.66   17.63
   0   0  -2  234.73   15.11
   0   0  -3  647.65   39.07
   0   0  -3  794.14   34.73
   0   0  -4 1883.33   83.43
   0   0  -4 2211.21   74.42
   0   0  -5 2472.00  105.20
   0   0  -5 2886.83   93.93
   0   0  -6 4114.48  129.11
   0   0  -6 4368.70  125.36
   0   0  -7 6195.06  172.58
   0   0  -7 6178.49  170.82
   0   0  -8 3787.19  116.95
   0   0  -9   81.40   10.26
   0   0  -9   73.34   10.59
   0   0 -10  230.95   17.74
   0   0 -10  201.21   16.83
   0   0 -10  264.60   20.05
   0   0 -10  254.95   19.54
   0   0 -10  286.56   20.89
   0   0 -11   37.64    6.53
   0   0 -11   48.41    8.13
   0   0 -11   42.60    7.58
   0   0 -11   39.66    7.29
   0   0 -11   48.65    8.30
   0   0 -11   57.42    8.69
   0   0 -12    6.14    2.80
   0   0 -12    7.77    3.81
   0   0 -12    4.16    3.46
   0   0 -12    3.71    3.16
   0   0 -12    8.88    3.61
   0   0 -13  904.71   36.96
   0   0 -13  820.15   38.58
   0   0 -13 1111.01   45.58
   0   0 -13 1068.62   42.95
   0   0 -14  546.93   27.02
   0   0 -14  584.58   29.53
   0   0 -15    1.20    1.17
   0   0 -15  876.94   30.81
   0   0 -16  397.03   20.30
   0   1 -14   42.42    6.11
   0   1 -14   45.04    7.29
   0   1 -13  640.85   29.63
   0   1 -13  692.22   33.31
   0   1 -13  651.53   30.95
   0   1 -12   43.84    7.03
   0   1 -12   38.43    6.25
   0   1 -12   55.43    8.75
   0   1 -12   53.27    8.17
   0   1 -11    2.50    2.89
   0   1 -11    2.82    3.21
   0   1 -11    2.97    3.12
   0   1 -10   72.40   18.12
   0   1 -10   92.17   12.02
   0   1  -9   36.32   12.57
   0   1  -9   27.96    6.03
   0   1  -8 2248.89  103.65
   0   1  -7 1163.13   45.94
   0   1  -7  784.22   57.88
   0   1  -6  204.83   18.00
   0   1  -6  223.42   26.36
   0   1  -5 1212.51   64.14
   0   1  -4  712.08   27.57
   0  -1   3  106.57   16.60
   0   1  -3   66.19    9.07
   0  -1   2  245.39   37.45
   0  -1   1  357.10   58.20
   0  -1   0 6880.60  315.34
   0  -1   0 9156.25  235.38
   0  -1  -1  195.13   11.58
   0  -1  -2  157.38   12.68
   0  -1  -2  132.23   22.61
   0  -1  -3   42.78    8.40
   0   1   3   49.57    8.15
   0  -1  -3   37.05    8.54
   0   1   4  807.48   29.19
   0  -1  -4  555.71   24.74
   0  -1  -7 1090.06   45.88
   0  -1  -7  996.88   43.57
   0  -1  -7 1058.50   53.09
   0  -1  -8 2395.53   90.22
   0  -1  -8 2100.41   75.62
   0  -1  -9   29.56    6.05
   0  -1  -9   24.53    6.64
   0  -1  -9   22.62    6.27
   0  -1  -9   18.03    5.74
   0  -1  -9   22.60    8.38
   0  -1  -9   19.35    6.86
   0  -1 -10   84.71   10.39
   0  -1 -10   55.28    8.77
   0  -1 -10   53.90    9.51
   0  -1 -10   88.26   12.82
   0  -1 -10   55.12    8.33
   0  -1 -10   56.86    8.29
   0  -1 -11    9.95    4.07
   0  -1 -11    3.46    2.81
   0  -1 -11   -1.23    2.47
   0  -1 -11    0.79    1.66
   0  -1 -11    6.98    4.37
   0  -1 -11    0.85    1.91
   0  -1 -12   31.34    7.64
   0  -1 -12   26.08    6.69
   0  -1 -12   16.40    4.85
   0  -1 -12   48.53    8.44
   0  -1 -12   59.52    9.83
   0  -1 -13  631.02   33.51
   0  -1 -13  687.88   31.69
   0  -1 -14   41.67    7.26
   0  -1 -14   63.59    8.62
   0  -1 -14   58.98    9.08
   0  -1 -15  198.53   15.16
   0  -1 -15  292.58   18.76
   0  -1 -16  159.51   12.09
   0   2 -16   57.23    6.60
   0   2 -16   39.80    6.01
   0   2 -15    1.55    1.72
   0  -2  15   -0.32    1.68
   0   2 -15   -0.27    1.59
   0   2 -14   60.98    7.87
   0   2 -14   62.21    8.43
   0   2 -13  683.66   31.27
   0   2 -13  612.92   30.71
   0   2 -12   11.86    5.03
   0   2 -12   11.14    4.74
   0   2 -12   20.03    5.13
   0   2 -11  464.77   26.44
   0   2 -11  504.44   27.06
   0   2 -10  518.49   46.29
   0   2 -10  400.15   25.55
   0   2  -9  102.81   19.81
   0   2  -9   53.82    7.79
   0   2  -8 1074.26   68.12
   0   2  -7    3.91    3.20
   0   2  -7    9.25    6.31
   0   2  -6   14.19    4.27
   0  -2   5 1346.62   63.03
   0   2  -5  833.44   41.71
   0   2  -4   92.39   15.00
   0  -2   4  180.20   27.24
   0  -2   3 9999.00  347.59
   0  -2   2 2159.10  146.06
   0  -2   1  253.75   64.71
   0  -2   0  125.07   10.12
   0  -2  -1  161.71   13.10
   0  -2  -2 1571.38   59.64
   0  -2  -2 1386.70  109.91
   0  -2  -3 5709.15  168.62
   0  -2  -3 5192.84  205.86
   0  -2  -4  106.09   14.14
   0  -2  -4  110.23   16.23
   0   2   4  142.95   17.48
   0   2   5  881.67   40.09
   0  -2  -5  587.97   33.35
   0  -2  -6   13.25    5.60
   0  -2  -7    5.34    5.43
   0  -2  -7   12.35    4.95
   0  -2  -7   15.94    4.37
   0  -2  -8  963.55   40.94
   0  -2  -8 1004.49   43.76
   0  -2  -9   66.02    9.65
   0  -2  -9   53.86   11.86
   0  -2  -9   60.63   10.37
   0  -2  -9   59.93    9.35
   0  -2  -9   59.85   12.13
   0  -2  -9   53.39    9.03
   0  -2  -9   78.41   11.73
   0  -2  -9   65.19    9.73
   0  -2 -10  416.93   25.35
   0  -2 -10  445.20   28.63
   0  -2 -10  451.62   29.03
   0  -2 -10  483.71   28.75
   0  -2 -10  481.48   30.10
   0  -2 -10  470.25   27.30
   0  -2 -11  406.75   24.46
   0  -2 -11  314.97   23.25
   0  -2 -11  296.45   24.19
   0  -2 -11  327.58   22.18
   0  -2 -11  314.27   22.57
   0  -2 -11  353.84   28.63
   0  -2 -12   11.72    3.84
   0  -2 -12   15.75    5.11
   0  -2 -12   17.13    4.92
   0  -2 -12   27.24    7.59
   0  -2 -12   20.49    5.45
   0  -2 -12   19.16    7.80
   0  -2 -13  425.98   27.36
   0  -2 -13  354.69   22.51
   0  -2 -14   22.48    5.93
   0  -2 -14   48.57    7.74
   0  -2 -15    3.79    2.09
   0  -2 -16   19.66    3.21
   0  -3  16   48.86    5.95
   0   3 -16   52.05    5.61
   0   3 -16   46.44    5.91
   0   3 -15   57.31    7.18
   0  -3  15   80.86    9.61
   0   3 -15   67.56    7.73
   0   3 -14  289.35   19.26
   0   3 -14  209.77   16.02
   0   3 -13   49.85    7.98
   0   3 -12   51.21    9.30
   0   3 -12   29.42    6.14
   0   3 -11  799.67   60.16
   0   3 -11  789.30   37.51
   0  -3  10 1140.13   63.32
   0   3 -10  970.39   44.11
   0   3 -10  973.22   66.36
   0   3  -9    5.99    2.71
   0   3  -9    3.26    3.03
   0   3  -9    5.41    1.68
   0   3  -8   30.09    6.80
   0   3  -8   30.01   10.43
   0   3  -7  516.35   28.79
   0   3  -6  375.92   23.86
   0   3  -6  426.59   30.22
   0  -3   5 1998.42  103.90
   0   3  -5 1249.14   67.76
   0  -3   4  931.73   76.86
   0   3  -4  594.18   47.39
   0  -3   3 7291.59  306.96
   0  -3   2 2072.10  165.48
   0  -3   1 1905.89  188.31
   0  -3   0  324.17   21.55
   0  -3  -1 1096.45   46.87
   0  -3  -2 1039.78  114.98
   0  -3  -3 4733.81  151.16
   0  -3  -3 4178.50  208.64
   0  -3  -4  579.59   38.31
   0   3   4  616.02   47.96
   0  -3  -4  498.82   49.58
   0  -3  -5 1202.20   64.07
   0  -3  -5 1159.02   65.52
   0  -3  -6  365.11   28.72
   0   3   6  482.29   33.11
   0  -3  -7  494.83   28.14
   0  -3  -7  414.78   36.11
   0  -3  -7  461.81   25.78
   0  -3  -8   31.63    6.17
   0  -3  -8   22.94    8.64
   0  -3  -8   30.20    6.11
   0  -3  -8   35.30    9.56
   0  -3  -8   24.85    7.57
   0  -3  -9    3.50    2.75
   0  -3  -9    6.94    5.20
   0  -3  -9    9.10    3.88
   0  -3  -9    7.84    4.83
   0  -3  -9    6.41    3.29
   0  -3  -9    3.21    3.89
   0  -3  -9    4.37    3.12
   0  -3  -9    7.26    2.62
   0  -3  -9    8.62    3.83
   0  -3  -9    7.38    5.03
   0  -3  -9    9.65    4.41
   0  -3  -9    3.34    1.73
   0  -3 -10  888.43   57.16
   0  -3 -10  894.85   39.84
   0  -3 -10  934.02   46.67
   0  -3 -10  928.66   46.69
   0  -3 -10  840.78   41.93
   0  -3 -10  954.95   46.63
   0  -3 -10  979.75   53.88
   0  -3 -10  986.26   45.70
   0  -3 -10  980.93   45.53
   0  -3 -10  938.30   46.04
   0  -3 -11  703.45   34.34
   0  -3 -11  731.41   40.08
   0  -3 -11  794.27   40.40
   0  -3 -11  783.49   38.68
   0  -3 -11  886.39   49.09
   0  -3 -11  739.58   39.83
   0  -3 -11  731.13   39.27
   0  -3 -11  742.73   40.96
   0  -3 -12   62.85    9.87
   0  -3 -12   54.65    9.59
   0  -3 -12   58.19    9.35
   0  -3 -12   54.44    8.54
   0  -3 -12   58.91    9.64
   0  -3 -12   72.67   13.10
   0  -3 -12   72.72   10.27
   0  -3 -13   92.06   11.78
   0  -3 -13  103.67   12.33
   0  -3 -13   95.86   11.07
   0  -3 -13   93.12   11.45
   0  -3 -13  107.05   14.74
   0  -3 -14  210.67   17.06
   0  -3 -14  253.56   21.36
   0  -3 -14  206.77   17.61
   0  -3 -15   41.61    6.28
   0  -3 -15   54.02    8.29
   0  -3 -15   52.99    7.87
   0  -3 -16   21.34    3.53
   0  -3 -16   19.40    3.86
   0  -4  16  113.85    8.87
   0   4 -16  121.48    9.13
   0   4 -15    1.65    1.38
   0  -4  15    2.75    2.09
   0   4 -15    3.69    2.20
   0   4 -14   52.23    7.53
   0   4 -14   56.38    7.08
   0   4 -13   56.12    8.49
   0   4 -13   36.87    6.38
   0  -4  12   36.05   10.00
   0   4 -12   14.43    5.67
   0   4 -12   24.64   10.87
   0   4 -12   15.16    5.46
   0  -4  11  533.02   37.69
   0   4 -11  465.74   44.26
   0   4 -11  406.57   24.68
   0  -4  10  615.00   39.02
   0  -4  10  692.87   45.97
   0   4 -10  615.35   51.30
   0  -4   9   17.91    8.21
   0  -4   9   10.40    5.77
   0   4  -9   11.19    5.76
   0   4  -9    0.90    1.72
   0  -4   8  213.95   25.04
   0   4  -8  144.35   15.04
   0   4  -8  168.08   25.49
   0   4  -7  106.40   11.92
   0   4  -6  208.25   16.48
   0   4  -6  205.33   25.28
   0   4  -5 2330.00   79.79
   0   4  -5 2308.06  109.67
   0  -4   4  298.80   50.86
   0   4  -4  192.41   29.29
   0  -4   3 1762.65  140.63
   0  -4   2  744.36  106.67
   0  -4   1   69.52   48.01
   0  -4   0 2036.30  197.58
   0  -4   0 1567.67   63.55
   0  -4  -1  143.46   16.02
   0  -4  -2  498.74   33.65
   0  -4  -2  456.00   92.80
   0  -4  -3  931.07   97.58
   0   4   4  160.75   29.08
   0  -4  -4  118.36   27.56
   0  -4  -5 2522.98  109.35
   0  -4  -5 2411.47  122.69
   0   4   6  257.86   29.39
   0  -4  -6  180.50   24.39
   0  -4  -7   50.46    8.56
   0  -4  -7   51.13   13.64
   0  -4  -7   45.81    9.09
   0  -4  -8  167.57   14.85
   0  -4  -8  170.60   25.28
   0  -4  -8  162.63   19.31
   0  -4  -8  184.95   19.50
   0  -4  -8  184.76   18.32
   0  -4  -8  174.01   21.97
   0  -4  -8  147.91   17.00
   0  -4  -8  189.26   20.18
   0  -4  -8  170.11   17.77
   0  -4  -9    8.23    6.39
   0  -4  -9    9.69    3.61
   0  -4  -9    8.35    4.80
   0  -4  -9   15.03    5.87
   0  -4  -9   14.31    6.75
   0  -4  -9    8.78    5.01
   0  -4  -9    8.43    5.19
   0  -4  -9    9.32    3.98
   0  -4  -9    7.55    3.75
   0  -4  -9   10.94    5.60
   0  -4 -10  576.25   29.86
   0  -4 -10  586.54   48.00
   0  -4 -10  644.67   38.44
   0  -4 -10  684.42   37.19
   0  -4 -10  605.48   37.14
   0  -4 -10  553.47   31.59
   0  -4 -10  707.19   39.50
   0  -4 -10  724.11   47.17
   0  -4 -11  366.04   37.30
   0  -4 -11  353.27   21.76
   0  -4 -11  388.62   28.41
   0  -4 -11  384.45   28.20
   0  -4 -11  464.91   36.56
   0  -4 -11  443.10   29.08
   0  -4 -12   62.79   10.45
   0  -4 -12   65.72   12.74
   0  -4 -12   62.61   10.09
   0  -4 -12   43.33    8.56
   0  -4 -12   56.46    9.68
   0  -4 -12   52.33    8.92
   0  -4 -13   84.74   11.37
   0  -4 -13   73.98   10.15
   0  -4 -13  105.87   14.25
   0  -4 -13   86.89   10.98
   0  -4 -13   94.32   11.84
   0  -4 -14   46.74    7.47
   0  -4 -14   49.35    9.03
   0  -4 -14   32.47    5.66
   0  -4 -14   32.40    6.42
   0  -4 -15    1.97    1.32
   0  -4 -15   -0.26    1.48
   0  -4 -15    3.67    2.60
   0  -4 -16  110.26   10.18
   0   5 -15  114.33    9.20
   0  -5  15  125.47   11.41
   0   5 -14   23.53    5.31
   0  -5  14   36.80    6.86
   0   5 -13  239.14   17.74
   0   5 -13  238.73   15.52
   0  -5  12   13.48    5.81
   0   5 -12    5.34    2.13
   0   5 -12    5.27    4.22
   0   5 -12    9.27    3.87
   0  -5  11   19.87    6.32
   0  -5  11   26.58    9.90
   0   5 -11   23.86   10.44
   0   5 -11   14.96    4.33
   0  -5  10   38.08   11.44
   0  -5  10   26.87    8.08
   0   5 -10   25.68   11.27
   0   5 -10   19.23    5.29
   0  -5   9   35.99   10.15
   0  -5   9   28.68    8.04
   0   5  -9   27.87   12.34
   0  -5   8  925.31   59.02
   0   5  -7  172.27   23.95
   0   5  -6  508.25   45.58
   0  -5   6  807.28   74.26
   0   5  -5  926.03   69.63
   0  -5   5 1634.34  114.55
   0   5  -4  171.03   31.80
   0  -5   4  317.16   58.92
   0  -5   3   44.63   33.91
   0  -5   2  343.35   78.48
   0  -5   1  527.38  106.06
   0  -5   1  313.96   26.62
   0  -5   0 4010.96  141.13
   0  -5   0 6593.26  371.81
   0  -5  -2  289.85   28.02
   0  -5  -2  334.30   75.03
   0  -5  -3   -1.76    4.46
   0  -5  -3  -10.72   24.57
   0  -5  -4  185.31   41.90
   0   5   4  177.34   36.84
   0  -5  -5  863.37   76.39
   0   5   5 1023.85   77.04
   0   5   6  632.26   55.54
   0  -5  -6  467.78   49.73
   0  -5  -7  211.70   21.23
   0  -5  -7  181.68   20.89
   0  -5  -7  145.52   24.19
   0  -5  -7  174.32   25.43
   0  -5  -7  238.25   20.18
   0  -5  -7  215.44   24.84
   0  -5  -7  191.57   20.96
   0  -5  -7  227.08   21.60
   0  -5  -8  717.57   57.93
   0  -5  -8  769.95   37.90
   0  -5  -8  809.63   45.86
   0  -5  -8  741.67   47.12
   0  -5  -8  768.69   44.84
   0  -5  -8  792.90   45.05
   0  -5  -8  892.86   54.89
   0  -5  -8  723.41   43.98
   0  -5  -8  908.45   45.82
   0  -5  -9   10.55    6.51
   0  -5  -9   15.62    4.39
   0  -5  -9    8.78    5.68
   0  -5  -9   12.14    6.46
   0  -5  -9    7.86    4.06
   0  -5  -9   22.40    8.57
   0  -5  -9   12.64    5.97
   0  -5  -9   10.68    4.32
   0  -5 -10   83.46   18.20
   0  -5 -10   90.22   13.50
   0  -5 -10   75.81   15.07
   0  -5 -10   80.00   12.90
   0  -5 -10   75.02   12.24
   0  -5 -10   76.36   11.73
   0  -5 -10   71.48   12.03
   0  -5 -10   62.74    8.84
   0  -5 -10   83.43   13.64
   0  -5 -11   22.99    8.69
   0  -5 -11   18.12    5.92
   0  -5 -11   18.43    5.61
   0  -5 -11   20.44    6.51
   0  -5 -11   17.58    4.59
   0  -5 -11   24.25    9.48
   0  -5 -11   21.74    6.93
   0  -5 -12    5.61    5.38
   0  -5 -12    0.71    5.36
   0  -5 -12    3.27    4.06
   0  -5 -12    0.83    2.94
   0  -5 -13  286.81   20.41
   0  -5 -13  264.09   18.09
   0  -5 -13  308.65   25.27
   0  -5 -13  242.85   19.50
   0  -5 -14   35.35    6.69
   0  -5 -14   47.48    6.40
   0  -5 -14   37.16    6.40
   0  -5 -14   40.63    7.38
   0  -5 -15  181.51   12.81
   0  -5 -15  179.57   14.80
   0  -6  15  209.40   13.77
   0  -6  14  187.23   15.52
   0   6 -14  169.53   12.33
   0  -6  13  532.99   31.45
   0  -6  12   64.66   11.68
   0  -6  12   80.49   11.39
   0  -6  11   27.50    9.20
   0  -6  11   29.63    6.63
   0   6 -11   30.86   10.67
   0   6 -11   23.85    5.72
   0  -6  10   63.43   12.39
   0  -6  10   65.21   12.38
   0   6 -10   73.09   16.95
   0   6 -10   52.17    8.77
   0  -6   9   18.24    6.04
   0  -6   9   15.63    4.24
   0  -6   8 1619.55   83.58
   0  -6   8 1641.25   77.31
   0  -6   7 1292.85   72.82
   0   6  -7  926.22   66.77
   0   6  -6  314.97   38.39
   0  -6   6  528.33   65.53
   0   6  -5  271.89   37.67
   0  -6   5  437.59   63.37
   0  -6   4 1347.17  125.71
   0   6  -4  995.76   81.35
   0   6  -3   21.93   16.08
   0  -6   3   80.83   34.69
   0  -6   2  181.87   65.04
   0  -6   2  116.41   17.76
   0  -6   1 1027.46  151.07
   0  -6   1  853.22   51.54
   0  -6   0 6853.39  235.74
   0  -6   0 7513.75  230.97
   0  -6  -1  643.60   44.47
   0  -6  -2  246.10   28.97
   0  -6  -2  275.42   75.53
   0  -6  -3   22.26    9.54
   0   6   3   18.16   19.08
   0  -6  -3   64.11   33.94
   0  -6  -4  985.84   67.24
   0   6   4 1031.50   95.37
   0  -6  -4 1019.44  109.74
   0   6   5  356.96   49.96
   0  -6  -5  360.69   52.79
   0  -6  -5  351.58   33.70
   0  -6  -5  372.77   25.98
   0  -6  -5  418.46   32.78
   0  -6  -6  321.55   27.41
   0  -6  -6  307.15   43.87
   0   6   6  374.55   47.95
   0  -6  -6  401.30   28.77
   0  -6  -6  456.08   28.46
   0  -6  -6  338.87   31.32
   0  -6  -6  389.03   32.83
   0  -6  -6  283.02   25.11
   0  -6  -7 1126.01   57.57
   0  -6  -7 1227.22   67.20
   0  -6  -7 1053.33   77.83
   0  -6  -7 1367.23   69.47
   0  -6  -7 1326.60   61.12
   0  -6  -7 1390.86   57.98
   0  -6  -7 1010.34   55.28
   0  -6  -7 1113.31   60.27
   0  -6  -7 1189.42   56.62
   0  -6  -8 1509.03   69.91
   0  -6  -8 1285.40   84.47
   0  -6  -8 1363.61   68.48
   0  -6  -8 1613.74   80.31
   0  -6  -8 1706.57   68.07
   0  -6  -8 1303.97   64.86
   0  -6  -8 1445.65   66.89
   0  -6  -9   11.40    6.65
   0  -6  -9    3.19    3.64
   0  -6  -9    6.56    4.88
   0  -6  -9   -0.60    3.82
   0  -6  -9    9.52    6.01
   0  -6  -9    4.05    3.22
   0  -6  -9    0.97    6.29
   0  -6 -10   22.29   10.79
   0  -6 -10   26.58    8.40
   0  -6 -10   16.76    7.42
   0  -6 -10   11.94    6.43
   0  -6 -10   14.84    6.50
   0  -6 -10   25.05   10.23
   0  -6 -10   27.53    7.40
   0  -6 -10   24.43    9.07
   0  -6 -11   15.70    9.44
   0  -6 -11   27.28    8.31
   0  -6 -11   26.73    9.92
   0  -6 -11   18.41    7.57
   0  -6 -11   25.38    7.16
   0  -6 -11   21.72    5.85
   0  -6 -12   46.00    8.94
   0  -6 -12   35.43    7.67
   0  -6 -12   53.37   12.03
   0  -6 -12   44.12    8.00
   0  -6 -12   58.45   10.04
   0  -6 -13  483.84   27.93
   0  -6 -13  475.85   26.52
   0  -6 -13  519.84   33.02
   0  -6 -13  461.21   23.95
   0  -6 -14  191.51   16.92
   0  -6 -14  174.01   12.87
   0  -6 -15  319.60   19.07
   0  -7  14   47.51    6.62
   0   7 -14   56.77    6.59
   0  -7  13  311.89   21.81
   0   7 -13  264.94   16.81
   0  -7  12   21.41    5.98
   0  -7  12   13.18    5.25
   0   7 -12   12.37    3.70
   0  -7  11    3.07    2.24
   0  -7  11    1.31    4.34
   0   7 -11    4.79    2.78
   0  -7  10    8.95    6.07
   0  -7  10    2.26    5.70
   0   7 -10    6.70    7.46
   0   7 -10    4.29    2.76
   0  -7   9   11.83    6.80
   0  -7   9    5.43    6.44
   0   7  -9    1.18    3.00
   0   7  -9    6.20    3.84
   0  -7   8 1154.78   62.68
   0  -7   8 1129.86   67.20
   0  -7   7  680.22   51.49
   0  -7   7  731.26   49.96
   0  -7   6  136.24   24.67
   0  -7   6  116.38   34.39
   0   7  -6   83.98   20.82
   0  -7   5  359.66   62.71
   0   7  -5  262.13   38.92
   0  -7   4  169.34   29.22
   0   7  -4  132.88   27.88
   0  -7   4  223.17   51.80
   0  -7   3  532.87   88.90
   0  -7   3  572.97   49.44
   0   7  -3  357.82   55.03
   0  -7   3  518.94   43.21
   0  -7   2  406.24   41.04
   0  -7   2  529.99  109.70
   0  -7   2  415.53   38.13
   0   7  -2  266.35   52.09
   0  -7   1   81.47   45.58
   0  -7   1   89.67   19.82
   0  -7   1   54.10   13.67
   0   7   0 2497.60  182.10
   0  -7   0 3073.99  123.84
   0  -7  -1   71.65   18.23
   0   7   1   41.52   17.47
   0  -7  -2  530.64   49.48
   0  -7  -2  457.62   89.32
   0   7   2  435.48   72.85
   0  -7  -3  467.09   46.08
   0  -7  -3  405.22   76.06
   0   7   3  377.17   63.29
   0  -7  -3  368.90   29.81
   0  -7  -3  423.51   27.17
   0  -7  -4  170.69   26.64
   0  -7  -4  169.26   27.60
   0   7   4  151.76   38.37
   0  -7  -4  146.77   40.32
   0  -7  -4  167.92   17.37
   0  -7  -4  160.79   19.49
   0  -7  -4  145.27   23.55
   0  -7  -5  336.17   26.90
   0  -7  -5  302.65   39.40
   0  -7  -5  314.74   55.76
   0   7   5  294.56   49.50
   0  -7  -5  362.04   41.54
   0  -7  -5  380.98   25.18
   0  -7  -5  348.71   31.38
   0  -7  -5  288.92   33.15
   0  -7  -6   56.01   11.56
   0  -7  -6   64.12   24.40
   0   7   6   67.15   23.51
   0  -7  -6   54.26   11.88
   0  -7  -6   68.64   12.46
   0  -7  -6   58.24   10.16
   0  -7  -6   68.31   17.31
   0  -7  -6   52.03   13.35
   0  -7  -7  671.36   43.78
   0  -7  -7  598.39   61.33
   0  -7  -7  748.38   52.96
   0  -7  -7  786.73   41.64
   0  -7  -7  721.99   46.79
   0  -7  -7  750.00   51.51
   0  -7  -7  671.77   42.82
   0  -7  -8 1184.58   61.51
   0  -7  -8 1030.65   75.81
   0  -7  -8 1034.43   60.91
   0  -7  -8 1336.37   73.17
   0  -7  -8 1081.43   58.91
   0  -7  -8 1237.90   57.02
   0  -7  -9    7.73    4.46
   0  -7  -9   18.09    8.33
   0  -7  -9    8.80    5.38
   0  -7  -9   13.62    6.05
   0  -7  -9    6.01    4.61
   0  -7 -10   33.31   10.81
   0  -7 -10   27.67    7.58
   0  -7 -10   20.57    5.89
   0  -7 -10   42.16    8.99
   0  -7 -10   15.03    6.35
   0  -7 -10   29.50    6.86
   0  -7 -11   -0.54    3.88
   0  -7 -11    3.86    4.17
   0  -7 -11    0.81    3.22
   0  -7 -11   -0.85    2.03
   0  -7 -12    0.44    2.79
   0  -7 -12    1.42    1.54
   0  -7 -12   -1.22    2.18
   0  -7 -12    3.26    4.22
   0  -7 -13  368.01   22.96
   0  -7 -13  330.76   18.52
   0  -7 -13  370.39   26.08
   0  -7 -13  320.71   20.28
   0  -7 -14   75.33    8.19
   0  -7 -14   70.23    7.34
   0  -7 -14   80.53    9.90
   0  -8  13   35.11    5.04
   0   8 -13   33.33    5.02
   0  -8  12    2.07    4.18
   0  -8  12    6.58    4.34
   0   8 -12    5.27    2.50
   0  -8  11  175.35   16.76
   0  -8  11  175.81   18.67
   0   8 -11  138.71   12.92
   0  -8  10  287.27   24.85
   0  -8  10  305.10   27.45
   0   8 -10  255.56   19.53
   0  -8   9   12.55    6.95
   0  -8   9   -1.96    5.61
   0   8  -9   -7.54    8.47
   0  -8   9   -7.74    4.88
   0   8  -9    0.42    1.92
   0  -8   8  256.16   29.04
   0  -8   8  243.42   27.21
   0  -8   8  299.86   52.09
   0   8  -8  226.85   31.64
   0   8  -8  188.97   18.60
   0  -8   7  101.88   18.25
   0  -8   7   92.68   28.68
   0   8  -7   93.19   12.66
   0  -8   6   35.24   11.26
   0   8  -6   19.11    9.59
   0  -8   6   34.43   18.23
   0  -8   6   22.93    7.90
   0   8  -6   21.07    6.94
   0  -8   5  421.63   48.72
   0  -8   5  462.54   46.96
   0   8  -5  272.77   41.40
   0  -8   5  400.33   49.48
   0  -8   5  396.21   68.89
   0   8  -5  307.54   25.22
   0  -8   4   48.06   14.30
   0  -8   4   61.26   16.78
   0  -8   4   83.46   22.07
   0  -8   4  106.84   38.27
   0  -8   4   88.46   19.10
   0   8  -4   36.47   13.63
   0   8  -4   59.07    9.76
   0  -8   3 1143.11   73.71
   0  -8   3 1216.86   90.46
   0  -8   3 1162.74   65.22
   0  -8   3 1304.00   77.72
   0  -8   3 1285.39   83.11
   0  -8   2  528.40   60.74
   0  -8   2  513.01   43.26
   0   8  -2  319.99   57.65
   0  -8   2  472.39   40.59
   0  -8   2  531.75   52.17
   0  -8   2  550.94   46.76
   0  -8   2  603.10  113.85
   0  -8   1   49.92   11.85
   0  -8   1   59.02   24.40
   0  -8   1   63.66   15.99
   0  -8   1   42.01   27.82
   0  -8   1   60.36   15.90
   0  -8   1   71.75   20.25
   0  -8   1   51.70   14.78
   0  -8   0  371.88   57.50
   0  -8   0  432.95   46.27
   0  -8   0  362.69   93.82
   0  -8   0  370.33   42.10
   0   8   0  238.91   53.11
   0  -8   0  328.83   35.48
   0  -8  -1   97.49   22.82
   0   8   1   49.92   25.80
   0  -8  -1   90.43   19.64
   0  -8  -2  645.67   68.06
   0  -8  -2  598.34   56.28
   0   8   2  615.80   86.13
   0  -8  -2  504.80   57.12
   0  -8  -2  575.89  108.50
   0  -8  -2  558.07   52.49
   0  -8  -2  531.69   32.73
   0  -8  -3  994.91   80.67
   0  -8  -3 1098.76   80.88
   0   8   3 1149.50  114.14
   0  -8  -3 1177.92  141.36
   0  -8  -3 1064.90   51.37
   0  -8  -3 1072.34   73.67
   0  -8  -4   61.37   18.51
   0   8   4   63.34   26.04
   0  -8  -4   22.36   21.81
   0  -8  -4   79.48   17.76
   0  -8  -4   56.98    9.82
   0  -8  -4   56.24   17.19
   0  -8  -4   49.98   11.63
   0  -8  -5  446.42   31.30
   0  -8  -5  337.87   45.28
   0  -8  -5  445.16   49.33
   0   8   5  427.97   64.78
   0  -8  -5  409.62   64.99
   0  -8  -5  495.11   30.34
   0  -8  -5  450.63   40.69
   0  -8  -5  478.95   38.99
   0  -8  -6   39.46    8.67
   0   8   6   47.37   19.21
   0  -8  -6   46.62   21.40
   0  -8  -6   40.67   12.00
   0  -8  -6   22.14   11.65
   0  -8  -6   46.10   12.82
   0  -8  -6   40.64    9.40
   0  -8  -7   22.24    9.80
   0  -8  -7   17.63   11.77
   0  -8  -7   28.37   16.70
   0  -8  -7   32.18   10.69
   0  -8  -7   17.55    9.71
   0  -8  -7    6.14    5.61
   0  -8  -7   34.65    8.16
   0  -8  -7   35.74   12.48
   0  -8  -8  299.40   28.22
   0  -8  -8  261.15   28.21
   0  -8  -8  276.88   27.39
   0  -8  -8  272.24   23.57
   0  -8  -8  288.18   32.31
   0  -8  -9    1.33    3.96
   0  -8  -9    0.65    3.10
   0  -8  -9    5.38    3.24
   0  -8  -9    9.91    7.07
   0  -8  -9    1.61    3.10
   0  -8 -10  322.28   35.49
   0  -8 -10  384.36   29.67
   0  -8 -10  338.47   34.27
   0  -8 -10  360.63   25.39
   0  -8 -10  386.70   28.24
   0  -8 -11  171.52   18.21
   0  -8 -11  177.49   15.46
   0  -8 -11  177.81   16.80
   0  -8 -11  184.10   22.29
   0  -8 -12   59.45    9.14
   0  -8 -12   57.47   10.53
   0  -8 -12   42.10    7.30
   0  -8 -12   48.63    7.05
   0  -8 -13   95.30    8.16
   0  -8 -13   95.78    9.41
   0  -8 -13  104.59   12.25
   0  -9  12   22.44    5.65
   0  -9  12   23.35    6.08
   0   9 -12   19.65    3.93
   0  -9  11  495.73   30.14
   0  -9  11  475.52   29.43
   0  -9  11  495.70   28.01
   0   9 -11  439.91   23.27
   0  -9  10  697.28   40.32
   0  -9  10  652.23   39.87
   0  -9  10  641.61   36.26
   0   9 -10  575.78   29.86
   0  -9   9   -4.20    4.17
   0  -9   9    1.38    3.68
   0  -9   9    3.97    4.00
   0   9  -9    0.37    1.95
   0  -9   8    2.44    3.94
   0  -9   8    4.46    4.84
   0  -9   8    5.94    3.84
   0  -9   8    9.56    7.46
   0   9  -8    9.52    3.72
   0  -9   7  323.64   33.16
   0  -9   7  256.12   28.43
   0  -9   7  269.48   44.27
   0   9  -7  225.29   19.71
   0  -9   6   12.47    8.92
   0  -9   6   15.69    8.42
   0   9  -6    3.25    5.30
   0  -9   6   19.89   11.93
   0  -9   6   18.57    8.64
   0  -9   6    8.14   14.66
   0   9  -6   13.03    4.52
   0  -9   5  717.21   55.60
   0  -9   5  611.84   41.39
   0  -9   5  738.25   58.05
   0  -9   5  948.20   72.22
   0  -9   5  876.30   77.34
   0  -9   5  703.46   92.04
   0   9  -5  446.93   55.08
   0   9  -5  593.30   35.82
   0  -9   4  415.02   45.85
   0  -9   4  345.84   37.05
   0  -9   4  326.18   25.95
   0  -9   4  458.99   78.05
   0   9  -4  248.54   41.96
   0  -9   4  542.41   50.12
   0  -9   4  562.13   58.63
   0  -9   4  311.71   31.50
   0  -9   3 1365.52   91.34
   0  -9   3 1680.52   87.86
   0  -9   3 1860.00  108.56
   0  -9   3 1989.91  185.03
   0  -9   3 1989.90  100.52
   0  -9   3 1528.62   81.49
   0   9  -3 1085.37  103.05
   0  -9   2  140.35   22.23
   0  -9   2  130.09   25.53
   0  -9   2  129.36   34.54
   0   9  -2   97.41   31.12
   0  -9   2  192.11   28.72
   0  -9   2  145.86   24.12
   0  -9   2  157.13   58.83
   0  -9   1  171.38   40.13
   0  -9   1  131.11   18.70
   0  -9   1  149.73   23.91
   0  -9   1  142.64   29.69
   0  -9   1  152.18   25.91
   0  -9   1  175.31   27.17
   0  -9   1  221.17   70.94
   0  -9   0   98.63   14.40
   0  -9   0  137.16   36.73
   0  -9   0  168.92   32.94
   0   9   0   95.10   30.77
   0  -9   0  129.34   59.27
   0  -9   0   99.83   23.86
   0  -9  -1  186.42   35.24
   0   9   1  151.73   44.79
   0  -9  -1  155.34   32.73
   0  -9  -1  163.13   18.25
   0  -9  -2  199.86   39.45
   0  -9  -2  186.79   34.99
   0  -9  -2  196.59   62.12
   0  -9  -2  185.37   33.73
   0   9   2  229.76   54.46
   0  -9  -2  227.09   21.92
   0  -9  -2  237.83   34.69
   0  -9  -3 1263.11   98.27
   0   9   3 1520.52  139.70
   0  -9  -3 1658.06  174.75
   0  -9  -3 1320.32   64.04
   0  -9  -3 1673.33   95.61
   0  -9  -4  394.98   51.29
   0  -9  -4  454.39   51.25
   0  -9  -4  461.51   79.33
   0   9   4  565.83   78.69
   0  -9  -4  568.23   49.97
   0  -9  -4  458.72   32.75
   0  -9  -5  833.65   67.76
   0  -9  -5  665.32   85.54
   0   9   5  810.29   92.99
   0  -9  -5  726.36   43.85
   0  -9  -5  888.81   59.70
   0  -9  -5  741.62   51.86
   0  -9  -5  774.69   40.93
   0  -9  -6   22.59    6.80
   0  -9  -6   19.21    9.30
   0   9   6   44.41   19.42
   0  -9  -6    9.93   10.58
   0  -9  -6   16.61    8.72
   0  -9  -6   25.76   10.48
   0  -9  -6   16.57    9.64
   0  -9  -6   22.24    6.13
   0  -9  -6   24.26    9.10
   0  -9  -7  190.03   21.27
   0  -9  -7  144.59   28.47
   0  -9  -7  149.29   20.37
   0  -9  -7  148.57   23.62
   0  -9  -7  183.85   23.32
   0  -9  -7  190.35   26.63
   0  -9  -7  189.33   19.14
   0  -9  -8    6.39    4.71
   0  -9  -8   -3.94    3.57
   0  -9  -8    4.90    5.85
   0  -9  -8   11.78    5.87
   0  -9  -8    7.98    5.03
   0  -9  -8   10.48    5.39
   0  -9  -9    0.60    2.21
   0  -9  -9    1.24    3.56
   0  -9  -9    8.46    3.76
   0  -9  -9    4.83    4.35
   0  -9  -9    2.18    3.52
   0  -9 -10  901.22   45.67
   0  -9 -10  798.84   41.18
   0  -9 -10  833.29   39.32
   0  -9 -10  783.22   51.06
   0  -9 -11  542.55   36.48
   0  -9 -11  542.91   26.29
   0  -9 -11  502.60   27.48
   0  -9 -12   78.50    8.10
   0  -9 -12   69.08   10.35
   0  -9 -13   12.03    2.88
   0  -9 -13    3.34    1.29
   0 -10  11  190.62   15.02
   0 -10  11  178.09   14.78
   0 -10  10  169.93   16.66
   0 -10  10  171.17   15.77
   0 -10  10  178.36   17.11
   0  10 -10  142.13   11.64
   0 -10   9   -1.13    2.85
   0 -10   9   -1.03    2.34
   0 -10   9    1.03    2.76
   0  10  -9    4.60    2.50
   0 -10   8   37.06    9.17
   0 -10   8   28.03    8.66
   0  10  -8   26.97    5.64
   0 -10   7   25.69    8.07
   0 -10   7   29.02   10.24
   0  10  -7   26.93    6.09
   0 -10   6   17.70    7.26
   0 -10   6    7.67    5.42
   0  10  -6   13.98    7.87
   0 -10   6   15.23    9.80
   0 -10   6   21.21   12.16
   0  10  -6   15.62    4.24
   0 -10   5  584.03   49.71
   0 -10   5  611.90   48.05
   0 -10   5  547.07   33.80
   0 -10   5  533.68   53.01
   0  10  -5  388.81   49.61
   0 -10   5  501.40   71.53
   0 -10   4   44.35   15.28
   0 -10   4   13.55    6.77
   0  10  -4    7.88    9.57
   0 -10   4   37.40   15.07
   0 -10   4   35.23   18.02
   0 -10   3  374.99   40.50
   0 -10   3  443.00   39.49
   0  10  -3  343.04   54.46
   0 -10   3  587.37  101.71
   0 -10   3  439.05   39.72
   0 -10   3  554.40   51.12
   0 -10   2   49.93   13.64
   0 -10   2   27.29    8.33
   0 -10   2   44.02   14.74
   0  10  -2   42.47   20.05
   0 -10   1    0.80    5.78
   0 -10   1    7.17    7.18
   0 -10   1    4.78    4.37
   0 -10   1    6.16   17.16
   0 -10   0  278.73   24.28
   0 -10   0  369.20   54.27
   0 -10   0  349.18   40.80
   0 -10   0  452.94  102.24
   0  10   0  273.36   58.12
   0 -10   0  384.13   30.32
   0 -10  -1   15.16    7.47
   0  10   1   20.94    9.66
   0 -10  -1   21.90    5.85
   0 -10  -1   36.46   15.59
   0 -10  -2  105.09   29.14
   0 -10  -2  137.42   60.54
   0  10   2   97.80   37.37
   0 -10  -2   98.24   20.44
   0 -10  -2   78.94   13.35
   0 -10  -2   33.19   13.16
   0 -10  -3  401.24   50.39
   0  10   3  347.53   69.50
   0 -10  -3  487.64   91.81
   0 -10  -3  416.11   32.31
   0 -10  -3  523.74   49.23
   0 -10  -4   63.74   26.88
   0  10   4   45.45   21.92
   0 -10  -4   83.37   19.45
   0 -10  -4   49.50   10.73
   0 -10  -5  612.68   65.47
   0  10   5  813.17   93.95
   0 -10  -5  721.38   58.33
   0 -10  -5  809.55   67.08
   0 -10  -5  655.28   85.25
   0 -10  -5  772.74   45.86
   0 -10  -5  895.53   58.38
   0 -10  -5  844.75   43.11
   0 -10  -6   12.53    6.08
   0 -10  -6   16.12    6.36
   0 -10  -6   14.70   16.05
   0 -10  -6   12.29    4.82
   0 -10  -6   10.77    7.80
   0 -10  -6   21.17   12.80
   0 -10  -7    1.37    2.98
   0 -10  -7    4.91    4.99
   0 -10  -7    3.57    3.25
   0 -10  -7    5.02    3.04
   0 -10  -7    4.81    2.85
   0 -10  -8   19.33    8.82
   0 -10  -8   16.91    3.88
   0 -10  -8   23.60    7.00
   0 -10  -9    2.14    3.07
   0 -10  -9   -0.80    1.81
   0 -10 -10  324.84   19.58
   0 -10 -10  310.74   21.47
   0 -10 -10  334.59   22.67
   0 -10 -11  222.75   16.14
   0 -10 -11  223.44   15.19
   0 -10 -12   13.63    2.79
   0 -11  10   -0.24    0.94
   0 -11  10   -1.25    2.58
   0 -11   9    0.64    1.83
   0 -11   8  305.19   24.52
   0 -11   8  312.90   25.45
   0 -11   7   35.24    7.39
   0 -11   7  123.41   17.34
   0 -11   6  118.39   18.06
   0 -11   6  104.52   16.61
   0 -11   6  115.50   19.46
   0 -11   5  146.19   21.58
   0 -11   5  130.72   20.29
   0 -11   5  112.39   21.71
   0 -11   4  177.63   23.52
   0 -11   4  148.21   22.11
   0  11  -4  124.65   28.34
   0 -11   4  182.55   30.39
   0 -11   4  106.39   33.11
   0 -11   3   62.37   14.51
   0 -11   3   69.79   14.65
   0  11  -3   44.15   17.77
   0 -11   3   39.59   20.25
   0 -11   3   75.22   14.45
   0 -11   2   45.26   10.40
   0 -11   2   27.23    9.02
   0 -11   2   49.72   17.26
   0 -11   2   55.58   31.67
   0  11  -2   27.97   14.45
   0 -11   2   55.82   11.99
   0 -11   1  100.79   13.86
   0 -11   1  123.90   50.03
   0 -11   1  100.30   21.80
   0 -11   1  117.95   17.53
   0  11   0  712.93   90.68
   0 -11   0  995.19   71.33
   0 -11   0  996.69  150.59
   0 -11   0  990.98   55.64
   0  11   1   74.38   31.01
   0 -11  -1   82.05   22.53
   0 -11  -1   88.50   14.80
   0 -11  -2   17.96   22.59
   0  11   2   52.87   26.85
   0 -11  -2   64.47   19.21
   0 -11  -2   75.37   13.80
   0 -11  -3   87.40   36.18
   0 -11  -3   56.29   18.49
   0  11   3   41.19   24.12
   0 -11  -3   74.63   13.76
   0 -11  -3  105.45   19.29
   0 -11  -4   99.89   27.75
   0 -11  -4   97.69   35.98
   0  11   4  125.79   37.44
   0 -11  -4  153.33   28.20
   0 -11  -4  155.11   16.65
   0 -11  -4  160.46   24.04
   0 -11  -4  113.96   17.07
   0 -11  -5  226.34   34.04
   0 -11  -5  172.62   26.90
   0 -11  -5  207.77   22.74
   0 -11  -5  282.27   29.18
   0 -11  -5  228.15   20.07
   0 -11  -6   77.37   15.81
   0 -11  -6   86.96   19.05
   0 -11  -6   89.67   15.19
   0 -11  -6   93.20   15.31
   0 -11  -6   89.87   12.36
   0 -11  -7  165.61   18.73
   0 -11  -7  194.06   24.12
   0 -11  -7  182.51   16.84
   0 -11  -8  298.56   26.07
   0 -11  -8  295.92   20.92
   0 -11  -9   -1.53    3.00
   0 -11  -9    2.57    2.41
   0 -11  -9    2.55    2.69
   0 -11 -10   15.24    3.39
   0 -11 -10   10.33    3.11
   0 -12   9    7.76    3.11
   0 -12   8  484.65   27.61
   0  12  -8  448.62   21.31
   0 -12   7  254.04   22.20
   0 -12   6  189.77   19.24
   0 -12   6  174.73   20.37
   0 -12   5   26.11    6.58
   0 -12   5   50.28   13.13
   0 -12   4  157.96   18.86
   0 -12   4  209.00   29.60
   0 -12   4  237.10   22.86
   0 -12   3    0.59    2.85
   0 -12   3   -5.66    9.59
   0 -12   3   -2.01    6.46
   0 -12   2   74.23   21.98
   0 -12   2   76.46   14.05
   0 -12   1  116.42   28.65
   0 -12   1  145.74   19.56
   0 -12   0 1564.91  116.56
   0 -12   0 1289.75   65.92
   0 -12  -1  125.91   26.01
   0 -12  -1  151.19   20.32
   0 -12  -2  150.57   27.61
   0 -12  -2  130.88   17.90
   0 -12  -3    1.42    6.67
   0 -12  -3   -6.49   11.99
   0 -12  -3    2.24    2.61
   0 -12  -3    1.27    3.09
   0 -12  -4  231.31   31.07
   0 -12  -4  193.31   21.63
   0 -12  -4  244.40   20.00
   0 -12  -5   63.22   17.18
   0 -12  -5   43.22   13.03
   0 -12  -5   57.32    9.36
   0 -12  -5   50.81   10.34
   0 -12  -6  182.44   25.11
   0 -12  -6  145.84   18.47
   0 -12  -6  169.28   15.28
   0 -12  -7  418.11   23.69
   0 -12  -8  711.77   31.94
   0 -12  -8  560.12   26.32
   0 -12  -9   -1.28    1.44
   0 -12  -9    2.81    2.68
   0 -12  -9    1.98    1.06
   0 -13   6   39.86    6.49
   0 -13   5   48.84    8.34
   0 -13   5   48.88   10.11
   0 -13   4   36.61    6.76
   0 -13   4   52.48   12.43
   0 -13   3   13.69    4.22
   0 -13   3   21.96    8.72
   0 -13   3   12.42    6.14
   0 -13   2   -0.59    1.07
   0 -13   2   21.99   11.73
   0 -13   2   36.85    9.92
   0 -13   1    4.71    8.05
   0 -13   1   12.27    7.13
   0 -13   0  707.82   68.75
   0 -13   0  680.74   43.77
   0 -13  -1   10.22    6.23
   0 -13  -2  108.14   24.49
   0 -13  -2   82.69   10.15
   0 -13  -2   92.86   14.46
   0 -13  -3   18.36    7.22
   0 -13  -3    9.62    4.68
   0 -13  -3    9.03    1.82
   0 -13  -3   13.48    5.82
   0 -13  -4   51.91   13.01
   0 -13  -4   49.56    7.11
   0 -13  -5   61.65   10.99
   0 -13  -5   59.65    8.04
   0 -13  -6   38.95    6.09
   0 -13  -6   29.83    5.73
   0 -13  -7  101.25    9.95
   0 -13  -7  116.71    9.27
   0 -14   3  265.94   24.36
   0 -14   2   51.76   12.82
   0 -14   2   63.47    9.32
   0 -14   1    5.30    9.10
   0 -14   1    0.96    2.88
   0 -14   0   84.68   18.70
   0 -14   0   84.86    9.43
   0 -14   0  100.42   14.26
   0 -14  -1    7.29    2.97
   0 -14  -1    8.49    5.82
   0 -14  -1   12.33    3.47
   0 -14  -2   95.40    9.45
   0 -14  -2   77.31    9.81
   0 -14  -3  270.38   26.62
   0 -14  -3  196.56   12.43
   1 -13  -5    4.18    2.72
   1 -13  -5    2.04    1.17
   1 -13  -4    2.45    2.90
   1 -13  -4    0.22    1.32
   1 -13  -3   76.10   14.63
   1 -13  -3   69.66   10.14
   1 -13  -3   61.35    7.12
   1 -13  -2   -4.79    4.61
   1 -13  -2   -3.05    3.10
   1 -13  -2   -2.01    3.08
   1 -13  -1    4.74    2.68
   1 -13  -1   -5.35    3.75
   1 -13   0   55.56   18.75
   1 -13   0   54.09    9.59
   1 -13   1   -8.81    8.28
   1 -13   1    0.56    4.65
   1 -13   2  175.77   27.72
   1 -13   2  184.48   18.73
   1 -13   3    7.72    6.38
   1 -13   3   -2.87    4.90
   1 -13   4   -1.36    1.27
   1 -13   4    5.23    6.83
   1 -13   4   -1.12    3.49
   1 -13   5   43.07    6.59
   1 -13   5   55.88   10.25
   1 -12  -7   28.78    5.50
   1 -12  -6    0.44    1.44
   1 -12  -6    0.25    1.36
   1 -12  -5   -3.69    4.04
   1 -12  -5    1.36    5.56
   1 -12  -5   -0.30    1.81
   1 -12  -4  143.38   21.85
   1 -12  -4  150.59   13.60
   1 -12  -4  143.72   16.50
   1 -12  -3   23.86    9.34
   1 -12  -3   22.99   12.17
   1 -12  -3   16.53    4.02
   1 -12  -3   14.56    6.67
   1 -12  -3   11.34    4.48
   1 -12  -2   53.82   15.56
   1 -12  -2   50.95   20.79
   1 -12  -2   55.50   10.55
   1 -12  -2   57.52    8.95
   1 -12  -1   36.93   15.81
   1 -12  -1   37.80    9.59
   1 -12   0  555.26   67.43
   1 -12   0  496.56   44.43
   1 -12   0  530.37   35.83
   1 -12   1   51.96   18.18
   1 -12   1   41.95   12.10
   1 -12   1   53.86    9.73
   1 -12   2  147.41   29.34
   1 -12   2  134.19   17.16
   1 -12   3   90.99   21.30
   1 -12   3   69.54   11.02
   1 -12   4   88.13   12.47
   1 -12   4   84.23   18.22
   1 -12   4  101.28   14.75
   1 -12   5   -2.15    4.28
   1 -12   5    3.52    2.94
   1 -12   5    8.63    3.06
   1 -12   6    7.33    4.57
   1 -12   6   21.30    6.98
   1 -12   7  309.82   21.99
   1 -12   8  221.00   16.38
   1 -11  -9   27.02    5.45
   1 -11  -9   21.06    4.39
   1 -11  -8  119.77   13.56
   1 -11  -8    1.26    0.69
   1 -11  -7   53.46   11.45
   1 -11  -7   45.71    7.07
   1 -11  -6  330.48   32.81
   1 -11  -6  276.22   25.64
   1 -11  -6  301.97   25.23
   1 -11  -6  271.00   19.70
   1 -11  -5   20.78   10.73
   1 -11  -5   14.91    8.57
   1 -11  -5   10.77    4.50
   1 -11  -5   17.93    9.01
   1 -11  -4  254.90   33.78
   1 -11  -4  267.04   20.87
   1 -11  -4  240.88   22.90
   1 -11  -3   30.18   13.90
   1 -11  -3   27.29    7.43
   1 -11  -3   25.63    6.37
   1 -11  -3   22.17    7.05
  -1  11   2   50.83   20.56
   1 -11  -2   49.88   18.12
   1 -11  -2   40.77   24.02
   1 -11  -2   54.88   14.80
   1 -11  -2   21.44    6.82
  -1  11   1  237.89   49.65
   1 -11  -1  169.55   63.62
   1 -11  -1  167.86   29.62
   1 -11  -1  177.68   19.71
   1 -11   0  645.20   56.70
  -1  11   0  626.97   79.92
   1 -11   0  779.41  143.91
   1 -11   0  707.38   43.34
   1 -11   1   94.72   52.05
   1 -11   1   88.04   19.52
   1 -11   1  104.59   15.74
   1 -11   2  112.27   15.99
   1 -11   2  118.77   15.22
  -1  11  -2   93.41   25.96
   1 -11   2  138.87   21.71
   1 -11   2  153.07   52.62
   1 -11   2  143.48   18.32
   1 -11   3   42.43   11.00
   1 -11   3   35.99   11.08
   1 -11   3   37.61   10.42
   1 -11   4   80.86   15.33
   1 -11   4   72.80   15.40
   1 -11   5   23.14    7.50
   1 -11   5   28.55   10.14
   1 -11   5   40.26   13.14
   1 -11   6   16.43    5.26
   1 -11   6    5.65    5.15
   1 -11   7  331.50   27.82
   1 -11   7  319.37   27.67
  -1  11  -8  243.94   16.53
   1 -11   8  256.76   21.90
  -1  11  -9   31.78    5.33
   1 -11   9   27.25    6.15
   1 -11   9   37.12    7.13
  -1  11 -10   23.39    4.06
   1 -10 -11   19.86    3.33
   1 -10 -10   27.94    5.20
   1 -10 -10   22.15    4.67
   1 -10  -9    8.12    4.05
   1 -10  -9   -0.23    0.68
   1 -10  -9    5.50    3.64
   1 -10  -8   38.44    9.63
   1 -10  -8   37.75    8.29
   1 -10  -8   29.84    5.83
   1 -10  -7   41.60   12.74
   1 -10  -7   46.09   10.16
   1 -10  -7   38.46    7.58
   1 -10  -6   26.70    9.09
   1 -10  -6   24.92    7.90
   1 -10  -6   22.50    5.64
   1 -10  -6   28.68    9.78
  -1  10   5   10.35    9.21
   1 -10  -5   23.07   17.46
   1 -10  -5    0.48    1.95
   1 -10  -5    2.90    4.93
   1 -10  -5   11.55   12.51
  -1  10   4  149.92   38.37
   1 -10  -4   88.05   30.32
   1 -10  -4   89.40   11.79
   1 -10  -4  129.42   23.05
   1 -10  -4   80.29   13.40
   1 -10  -3   93.14   26.55
  -1  10   3  169.79   42.61
   1 -10  -3   71.66   25.09
   1 -10  -3  103.80   14.90
   1 -10  -3   83.76   20.54
   1 -10  -3  157.93   27.56
   1 -10  -2   14.94    7.94
   1 -10  -2   -6.74   32.83
  -1  10   2   13.71   12.39
   1 -10  -2   22.56    8.26
   1 -10  -2   25.59   10.01
   1 -10  -2   36.10   18.67
   1 -10  -1    8.77   11.51
  -1  10   1   10.30   10.73
   1 -10  -1   49.21   27.77
   1 -10  -1   34.58    7.85
   1 -10  -1   21.96   14.25
   1 -10  -1   34.91   12.19
   1 -10   0   95.59   25.48
  -1  10   0  113.02   37.61
   1 -10   0   87.46   21.04
   1 -10   0   79.55   13.95
   1 -10   1   32.12    6.24
   1 -10   1   30.05   10.56
   1 -10   2   54.91   11.88
   1 -10   2   41.39   13.14
   1 -10   2   43.01   12.46
   1 -10   2   38.81   35.75
  -1  10  -2   41.05   14.73
   1 -10   3    1.22    5.45
   1 -10   3   16.34    9.54
  -1  10  -3    4.66    9.33
   1 -10   3   19.10    6.31
   1 -10   4    1.23    4.35
   1 -10   4    1.99    3.48
   1 -10   4   -5.87    5.55
   1 -10   4   -9.25   25.25
  -1  10  -4   -2.01    3.66
   1 -10   5  172.90   26.74
   1 -10   5  167.86   23.24
   1 -10   5  188.67   47.61
  -1  10  -5  114.71   25.24
   1 -10   6   26.11   10.46
   1 -10   6   18.05    9.33
  -1  10  -6    6.03    4.32
   1 -10   6   14.79   10.11
   1 -10   6   14.93   10.26
   1 -10   7   98.83   18.03
   1 -10   7   71.52   11.69
   1 -10   8    7.24    4.34
   1 -10   8    1.01    4.36
   1 -10   9    2.27    3.26
   1 -10   9    1.61    2.50
   1 -10  10  152.74   14.28
   1 -10  10  117.98   13.74
   1 -10  10  133.52   13.85
  -1  10 -11    6.92    2.44
   1 -10  11    6.81    3.66
   1 -10  11    0.81    1.17
   1  -9 -12    1.33    0.99
   1  -9 -12   35.57    5.05
   1  -9 -11  192.75   13.38
   1  -9 -10   90.74   11.07
   1  -9 -10   88.27   13.66
   1  -9 -10   87.32   10.29
   1  -9  -9   14.50    4.84
   1  -9  -9   11.91    5.18
   1  -9  -9   -0.83    5.79
   1  -9  -9   12.31    3.47
   1  -9  -9    9.34    4.37
   1  -9  -8   11.51    4.66
   1  -9  -8    8.23    6.09
   1  -9  -8   14.68    5.45
   1  -9  -8    8.44    4.15
   1  -9  -8   11.05    6.23
   1  -9  -7  437.95   30.82
   1  -9  -7  300.15   39.64
   1  -9  -7  418.93   38.69
   1  -9  -7  422.54   28.01
   1  -9  -7  317.31   34.10
   1  -9  -7  437.17   34.40
   1  -9  -7  394.05   30.47
   1  -9  -6   22.16    6.52
   1  -9  -6   14.36   12.51
   1  -9  -6   18.93    7.19
   1  -9  -6   15.20    8.29
   1  -9  -6   12.45    2.49
   1  -9  -6   27.07    9.10
   1  -9  -6   22.99   10.53
   1  -9  -5   24.74   22.36
  -1   9   5   26.14   20.30
   1  -9  -5    9.31    6.15
   1  -9  -5   10.35    4.95
   1  -9  -5    4.32    4.27
   1  -9  -4   86.73   22.72
  -1   9   4  129.66   35.52
   1  -9  -4  114.17   37.60
   1  -9  -4  123.51   14.69
   1  -9  -4  123.00   21.26
   1  -9  -4  140.11   29.68
   1  -9  -3 1056.63   84.72
   1  -9  -3  903.25   78.23
  -1   9   3 1272.47  119.85
   1  -9  -3 1202.49  155.51
   1  -9  -3 1250.07   84.12
   1  -9  -3 1083.67   54.21
   1  -9  -2   16.27   14.25
   1  -9  -2    5.51    8.26
  -1   9   2   10.29   12.80
   1  -9  -2   21.90   44.28
   1  -9  -2    1.78    9.84
   1  -9  -2    7.03   12.11
   1  -9  -2    9.54    3.46
   1  -9  -1   17.38   13.81
   1  -9  -1   31.62   12.87
  -1   9   1   31.37   21.22
   1  -9  -1   28.71   17.97
   1  -9  -1   15.47    9.38
   1  -9   0   25.72    5.43
   1  -9   0   22.91    7.28
   1  -9   0   18.79   27.01
  -1   9   0   39.95   21.67
   1  -9   0   23.09   10.69
   1  -9   1  255.97   25.50
   1  -9   1  291.04   36.42
   1  -9   1  304.00   58.41
   1  -9   1  262.97   35.99
   1  -9   1  319.59  104.13
   1  -9   1  308.23   43.46
   1  -9   2  203.78   33.16
   1  -9   2  177.99   39.07
   1  -9   2  214.71   26.48
   1  -9   2  179.04   26.37
   1  -9   2  194.63   76.27
  -1   9  -2  150.63   37.00
   1  -9   2  196.06   33.48
   1  -9   3  361.34   38.08
   1  -9   3  310.00   47.68
   1  -9   3  376.96   46.76
  -1   9  -3  278.09   50.42
   1  -9   3  342.98   34.80
   1  -9   4  432.97   52.58
   1  -9   4  385.69   47.22
   1  -9   4  408.42   42.54
  -1   9  -4  338.52   51.32
   1  -9   4  552.71   96.79
   1  -9   4  456.79   37.66
   1  -9   5  391.26   45.75
   1  -9   5  414.07   42.21
   1  -9   5  486.73   78.68
  -1   9  -5  340.16   46.70
   1  -9   6   35.07   10.31
   1  -9   6   47.97   14.15
   1  -9   6   21.94   12.16
   1  -9   6   13.02    9.19
  -1   9  -6   48.89   16.51
  -1   9  -6   38.89    7.78
  -1   9  -7    2.71    3.77
   1  -9   7    4.19    3.24
   1  -9   7   -1.08    7.25
  -1   9  -8   33.90    6.62
   1  -9   8   41.69   13.13
   1  -9   8   36.66   10.93
  -1   9  -9    2.95    1.81
   1  -9   9   -3.64    4.34
   1  -9   9    2.50    3.23
   1  -9   9    1.29    5.83
  -1   9 -10  527.04   26.99
   1  -9  10  486.72   33.23
   1  -9  10  478.19   31.91
   1  -9  10  528.95   32.39
  -1   9 -11  241.60   15.68
   1  -9  11  205.98   18.34
   1  -9  11  230.43   19.07
   1  -9  11  225.07   18.10
  -1   9 -12  215.05   13.79
   1  -9  12  257.86   17.95
   1  -9  12  244.36   17.47
   1  -8 -13   30.42    4.37
   1  -8 -13   29.91    5.56
   1  -8 -12   56.34    7.68
   1  -8 -12   42.13    6.32
   1  -8 -12   40.89    5.42
   1  -8 -12   40.16    7.80
   1  -8 -11  269.60   19.78
   1  -8 -11  210.23   21.59
   1  -8 -11  241.60   16.89
   1  -8 -10   99.17   12.63
   1  -8 -10   85.80   10.13
   1  -8 -10   80.71   10.89
   1  -8 -10   82.31   15.42
   1  -8  -9   -1.20    6.83
   1  -8  -9   -0.58    3.96
   1  -8  -9    5.53    3.94
   1  -8  -9   -2.80    3.39
   1  -8  -9   -1.75    1.70
   1  -8  -8    6.36    3.63
   1  -8  -8    4.86    2.56
   1  -8  -8   -0.81    3.95
   1  -8  -8    2.02    1.95
   1  -8  -8   -3.01    3.93
   1  -8  -7  858.88   48.03
   1  -8  -7  916.76   60.05
   1  -8  -7  914.10   54.60
   1  -8  -7  709.60   53.75
   1  -8  -7  878.29   44.48
   1  -8  -7  807.87   46.52
   1  -8  -6   14.67    5.35
   1  -8  -6   26.40   18.41
   1  -8  -6   16.05    5.21
   1  -8  -6   11.66    6.88
   1  -8  -6   20.63    6.36
   1  -8  -6   10.50    5.46
   1  -8  -6   19.77    8.62
   1  -8  -5    5.98    4.59
   1  -8  -5   -3.32    8.30
   1  -8  -5    3.12   10.20
  -1   8   5    4.84    6.53
   1  -8  -5   -1.09    8.52
   1  -8  -5    3.53    5.74
   1  -8  -5    3.83    2.65
   1  -8  -5    4.45    6.74
   1  -8  -5   -3.11    9.19
   1  -8  -4   90.49   19.80
   1  -8  -4   59.27   18.20
  -1   8   4   84.09   26.87
   1  -8  -4  119.34   38.67
   1  -8  -4   69.14   16.27
   1  -8  -4   98.71   17.05
   1  -8  -3  752.03   74.39
   1  -8  -3  773.98   67.93
  -1   8   3 1015.39  100.96
   1  -8  -3  844.76  137.13
   1  -8  -3  796.63   64.61
   1  -8  -3  823.53   43.52
   1  -8  -2   29.52   20.59
   1  -8  -2   -1.57    8.98
  -1   8   2   -6.55   12.33
   1  -8  -2   -7.54   46.12
   1  -8  -2    4.65    3.75
   1  -8  -2   -1.64   11.71
   1  -8  -1    6.19   20.63
   1  -8  -1   24.29    9.83
  -1   8   1   27.19   21.36
   1  -8  -1    3.64    9.40
   1  -8  -1    3.10    8.38
   1  -8   0   33.76    8.22
   1  -8   0   39.88   13.03
   1  -8   0   -9.80   52.13
  -1   8   0   19.89   16.47
   1  -8   0   28.15   12.71
   1  -8   1  427.87   36.68
   1  -8   1  572.81   79.20
   1  -8   1  424.02   45.18
   1  -8   1  653.14  151.30
  -1   8  -2  213.86   46.12
   1  -8   2  322.61   93.21
   1  -8   2  221.70   27.88
   1  -8   2  245.02   30.19
   1  -8   2  267.40   48.16
   1  -8   3  188.74   38.77
  -1   8  -3  197.21   40.18
   1  -8   3  270.79   82.66
   1  -8   3  203.12   26.94
   1  -8   3  231.68   29.39
   1  -8   4  273.40   42.17
   1  -8   4  315.50   72.11
   1  -8   4  304.45   30.59
   1  -8   4  334.47   35.77
  -1   8  -4  242.41   41.86
  -1   8  -4  294.96   21.62
   1  -8   5  371.90   43.39
   1  -8   5  435.45   78.63
   1  -8   5  399.54   41.47
  -1   8  -5  258.04   40.79
  -1   8  -5  388.22   26.21
   1  -8   6   10.00   19.65
  -1   8  -6   -1.64    8.58
   1  -8   6   48.23   13.81
  -1   8  -6   39.05    8.97
   1  -8   7   11.72    9.35
  -1   8  -7    6.06    7.72
  -1   8  -7    7.30    4.96
   1  -8   8   58.71   17.22
   1  -8   8   47.80   15.94
  -1   8  -8   48.07    9.76
   1  -8   9   29.92   10.93
   1  -8   9   15.71   10.16
   1  -8   9   35.73   21.93
  -1   8  -9   17.40    5.74
  -1   8 -10  470.29   27.56
   1  -8  10  458.11   32.85
   1  -8  10  455.85   35.50
  -1   8 -11  180.23   14.67
   1  -8  11  177.48   19.34
   1  -8  11  171.91   17.48
  -1   8 -12  293.22   17.94
   1  -8  12  362.48   24.33
   1  -8  12  334.22   22.21
   1  -8  12  355.93   24.51
  -1   8 -13   24.01    4.19
   1  -8  13   34.57    6.04
   1  -8  13   30.71    5.57
   1  -7 -13    2.94    2.17
   1  -7 -13    3.61    1.71
   1  -7 -13    4.23    2.14
   1  -7 -12   97.97   11.21
   1  -7 -12   80.68   12.09
   1  -7 -12   85.83   10.10
   1  -7 -12   82.60    8.56
   1  -7 -11   67.50   10.18
   1  -7 -11   63.02   13.04
   1  -7 -11   46.54    7.48
   1  -7 -10   32.00   11.76
   1  -7 -10   45.24    9.19
   1  -7 -10   34.31    7.75
   1  -7 -10   42.48    7.58
   1  -7 -10   33.41    8.04
   1  -7 -10   23.59    8.16
   1  -7  -9   14.38    9.56
   1  -7  -9   20.99    6.50
   1  -7  -9   22.14    5.30
   1  -7  -9   29.26    8.65
   1  -7  -9   19.53    9.26
   1  -7  -8   24.64    8.85
   1  -7  -8   55.39   11.15
   1  -7  -8   41.18    8.66
   1  -7  -8   38.83   10.31
   1  -7  -8   40.25   11.73
   1  -7  -7  129.55   17.25
   1  -7  -7  138.35   21.55
   1  -7  -7   97.19   14.46
   1  -7  -7  114.98   14.61
   1  -7  -7  121.05   19.60
   1  -7  -7  100.66   16.25
   1  -7  -6   99.24   14.93
   1  -7  -6   99.65   26.98
  -1   7   6  143.71   31.10
   1  -7  -6  104.02   18.71
   1  -7  -6   98.96   14.61
   1  -7  -6  115.27   13.59
   1  -7  -6  105.25   17.04
   1  -7  -5   26.91    9.70
   1  -7  -5   36.94    8.57
  -1   7   5   67.61   22.54
   1  -7  -5   53.93   30.96
   1  -7  -5   55.88    9.48
   1  -7  -5   38.76   10.48
   1  -7  -5   43.40   10.35
   1  -7  -5   36.44    7.42
   1  -7  -4   46.90   13.99
   1  -7  -4   44.32    7.83
   1  -7  -4   61.41   15.96
  -1   7   4   33.31   14.53
   1  -7  -4   39.93   33.95
   1  -7  -4   43.63   12.37
   1  -7  -4   60.91   12.59
   1  -7  -3  102.91   22.37
   1  -7  -3  123.08   30.68
  -1   7   3  155.26   36.80
   1  -7  -3  109.56   44.67
   1  -7  -3  119.98   22.42
   1  -7  -3   76.09   13.00
   1  -7  -2   54.46   15.44
   1  -7  -2   39.95   16.52
   1  -7  -2   82.13   59.55
  -1   7   2   54.43   22.65
   1  -7  -2   39.01    9.35
  -1   7   1   25.80   14.39
   1  -7  -1   63.23   30.31
   1  -7  -1   67.17   16.31
  -1   7   0  138.80   42.87
   1  -7   0  234.96  103.36
   1  -7   1   -8.68   31.69
   1  -7   1   38.50   10.26
   1  -7   1   26.95   18.04
   1  -7   2  314.98   93.29
  -1   7  -2  257.04   52.32
   1  -7   2  226.46   26.63
   1  -7   2  291.68   53.09
  -1   7  -3    2.43    8.39
   1  -7   3   -6.09   32.35
   1  -7   3    1.82    4.84
  -1   7  -3    4.84    3.08
   1  -7   3   -4.19   10.78
   1  -7   4   -4.78   14.16
   1  -7   4   10.62    5.00
  -1   7  -4   10.01    9.37
   1  -7   4   -4.99    8.28
  -1   7  -4    3.30    2.15
   1  -7   5  157.54   26.39
   1  -7   5  190.32   45.91
   1  -7   5  222.14   28.48
  -1   7  -5  140.83   30.47
   1  -7   5  160.89   30.24
  -1   7  -5  152.98   15.98
   1  -7   6   12.15   12.08
   1  -7   6   17.48    9.66
  -1   7  -6    1.57    7.11
   1  -7   6   12.96   17.04
  -1   7  -6    5.98    4.36
  -1   7  -7  262.55   36.00
   1  -7   7  273.40   44.84
  -1   7  -7  223.81   20.89
   1  -7   8   58.26   15.91
  -1   7  -8   71.64   15.35
  -1   7  -8   66.54   10.93
   1  -7   9   11.77    5.83
   1  -7   9   17.59    8.35
  -1   7  -9   18.68    7.71
  -1   7  -9   23.37    5.86
   1  -7  10  193.92   22.66
   1  -7  10  184.76   24.32
  -1   7 -10  178.78   24.06
  -1   7 -10  189.85   17.21
  -1   7 -11    1.77    1.71
   1  -7  11    1.12    3.98
   1  -7  11    0.71    4.20
  -1   7 -12   58.91    7.54
   1  -7  12   67.21   11.17
   1  -7  12   75.66   10.91
  -1   7 -13   59.55    7.18
   1  -7  13   53.61    7.43
   1  -7  13   59.38    9.41
  -1   7 -14    3.69    1.59
   1  -6 -14  110.07    9.26
   1  -6 -14  104.68   10.49
   1  -6 -13  128.56   11.98
   1  -6 -13  116.21   13.41
   1  -6 -13  114.46   10.64
   1  -6 -12  181.87   16.85
   1  -6 -12  174.47   15.55
   1  -6 -12  159.88   18.45
   1  -6 -12  162.12   13.29
   1  -6 -11   13.27    4.71
   1  -6 -11    6.28    1.92
   1  -6 -11    3.83    4.72
   1  -6 -10  453.56   44.24
   1  -6 -10  543.96   34.67
   1  -6 -10  542.16   30.98
   1  -6 -10  495.27   32.23
   1  -6 -10  495.83   41.26
   1  -6 -10  494.69   33.18
   1  -6 -10  413.14   31.77
   1  -6  -9   48.65   15.71
   1  -6  -9   86.05   13.63
   1  -6  -9   61.07   11.61
   1  -6  -9   64.21   11.32
   1  -6  -9   59.06   14.29
   1  -6  -9   81.93   12.29
   1  -6  -8  260.21   24.14
   1  -6  -8  193.27   31.69
   1  -6  -8  259.53   26.89
   1  -6  -8  284.10   31.04
   1  -6  -8  223.24   24.13
   1  -6  -8  188.23   21.05
   1  -6  -8  256.69   22.39
   1  -6  -7   84.92   12.67
   1  -6  -7   68.60   11.49
   1  -6  -7   90.77   13.79
   1  -6  -7   53.71    9.38
   1  -6  -7   84.54   12.53
   1  -6  -7   82.90   16.65
   1  -6  -6  476.35   33.38
   1  -6  -6  374.19   44.70
  -1   6   6  619.62   59.06
   1  -6  -6  497.85   31.13
   1  -6  -6  435.84   55.76
   1  -6  -6  557.76   41.05
   1  -6  -6  374.85   35.08
   1  -6  -6  507.47   32.99
   1  -6  -6  588.32   32.67
   1  -6  -5   35.91    8.39
   1  -6  -5   46.38   24.80
  -1   6   5   61.83   18.87
   1  -6  -5   37.53    7.61
   1  -6  -5   33.02   11.73
   1  -6  -5   39.05    9.54
   1  -6  -5   36.45    7.67
   1  -6  -4  566.06   85.71
  -1   6   4  632.91   66.62
   1  -6  -4  739.54   37.44
   1  -6  -4  683.01   42.66
   1  -6  -4  557.87   46.20
  -1   6   3   37.75   21.47
   1  -6  -3    5.18   22.95
   1  -6  -3   41.07   12.87
  -1   6   2  293.24   51.16
   1  -6  -2  334.16  102.39
   1  -6  -2  281.20   31.24
  -1   6   1  394.10   63.93
   1  -6   0 1327.91   66.45
  -1   6   0 1404.81  128.47
   1  -6   1  116.86   65.24
   1  -6   1   80.61   13.81
   1  -6   2  651.27   43.50
  -1   6  -2  702.43   85.30
   1  -6   2  680.44  129.91
   1  -6   3  285.57   77.19
   1  -6   3  258.20   31.30
  -1   6  -3  255.55   42.51
   1  -6   3  257.29   26.52
  -1   6  -3  233.72   17.88
  -1   6  -4  323.11   46.31
   1  -6   4  363.56   39.66
  -1   6  -4  322.21   23.56
  -1   6  -5   46.35   16.83
   1  -6   5   53.54   26.47
  -1   6  -5   51.37    9.19
  -1   6  -6   -2.85    4.10
   1  -6   6   -3.02   19.81
  -1   6  -6   -0.50    2.85
  -1   6  -7 1136.79   75.45
  -1   6  -7 1135.83   53.33
  -1   6  -8  625.72   48.93
  -1   6  -8  567.27   34.89
   1  -6   9  104.11   20.68
  -1   6  -9  128.41   21.99
  -1   6  -9  105.07   14.23
   1  -6  10   22.08    8.45
   1  -6  10   18.72    8.02
  -1   6 -10   19.79    8.12
  -1   6 -10    3.86    3.12
   1  -6  11  185.50   20.70
   1  -6  11  209.25   25.27
  -1   6 -11  178.54   24.67
  -1   6 -11  174.45   15.63
  -1   6 -12   -0.99    1.93
   1  -6  12    1.29    4.50
   1  -6  12    1.01    2.89
   1  -6  13  107.59   12.07
   1  -6  13  107.87   13.31
  -1   6 -14  189.23   13.46
   1  -6  15  582.45   26.01
   1  -5 -15   14.24    3.09
   1  -5 -15   13.04    3.73
   1  -5 -14    0.74    0.95
   1  -5 -14  129.09   12.48
   1  -5 -13  135.41   15.43
   1  -5 -13  125.82   11.79
   1  -5 -12  185.02   17.16
   1  -5 -12  190.91   20.64
   1  -5 -12  170.94   14.03
   1  -5 -12  196.64   17.27
   1  -5 -12  176.09   16.75
   1  -5 -11   40.41   11.95
   1  -5 -11   30.88    7.08
   1  -5 -11   27.24    7.04
   1  -5 -11   36.08    7.56
   1  -5 -11   24.71    8.08
   1  -5 -10  509.34   46.62
   1  -5 -10  552.95   34.55
   1  -5 -10  530.47   31.21
   1  -5 -10  550.06   34.32
   1  -5 -10  538.76   42.12
   1  -5 -10  514.81   33.79
   1  -5 -10  471.95   34.07
   1  -5  -9   65.23   17.15
   1  -5  -9   89.30   14.04
   1  -5  -9  107.19   14.92
   1  -5  -9  110.89   13.31
   1  -5  -9   80.52   16.55
   1  -5  -9   76.62   12.90
   1  -5  -9  104.54   15.34
   1  -5  -9   87.22   13.35
   1  -5  -8  420.89   30.34
   1  -5  -8  382.62   31.71
   1  -5  -8  277.76   37.00
   1  -5  -8  340.07   27.16
   1  -5  -8  385.21   36.39
   1  -5  -8  293.67   27.29
   1  -5  -8  352.03   30.05
   1  -5  -8  372.66   27.09
   1  -5  -8  357.84   29.94
   1  -5  -7   17.71    6.67
   1  -5  -7   13.46    4.42
   1  -5  -7   15.02    3.87
   1  -5  -7   17.14    4.11
   1  -5  -7   27.92    6.83
   1  -5  -7   21.36    6.29
   1  -5  -7    9.58    3.90
   1  -5  -7   16.47    5.13
   1  -5  -7   20.70    6.52
   1  -5  -6  433.79   30.56
   1  -5  -6  308.99   38.52
   1  -5  -6  404.89   27.97
   1  -5  -6  348.61   46.31
  -1   5   6  449.97   45.18
   1  -5  -6  324.58   28.45
   1  -5  -6  450.86   35.70
   1  -5  -6  469.09   30.00
   1  -5  -5   -1.18    3.50
  -1   5   5   -5.70    9.17
   1  -5  -5   -9.51    7.92
   1  -5  -4  700.14   90.52
  -1   5   4  738.38   64.72
  -1   5   3  111.68   26.18
   1  -5  -3  142.20   46.76
  -1   5   2  340.50   50.30
   1  -5  -2  213.48   72.37
  -1   5   1  418.82   63.03
   1  -5   0 1415.57   72.96
   1  -5   0 1448.30   65.59
  -1   5   0 1510.07  129.60
   1  -5   1  411.25   30.24
   1  -5   1  440.59  110.58
   1  -5   1  389.02   34.48
  -1   5  -2  782.03   86.38
   1  -5   2  629.93  130.39
   1  -5   2  666.82   40.39
   1  -5   2  653.72   46.63
   1  -5   3  396.86   36.57
  -1   5  -3  374.80   52.20
  -1   5  -4  612.76   60.60
   1  -5   4  535.09   87.66
  -1   5  -5    7.06   11.94
   1  -5   5   -3.25    9.55
  -1   5  -6    9.87    8.77
   1  -5   6   21.72   17.07
  -1   5  -7  907.82   62.43
  -1   5  -8  483.90   43.60
  -1   5  -9   57.57   10.31
  -1   5  -9   61.64   14.63
   1  -5  10   18.22    7.07
   1  -5  10   31.06   11.15
  -1   5 -10   28.15    7.08
  -1   5 -10   34.56   11.77
  -1   5 -10   17.45    3.89
   1  -5  11  218.69   23.41
   1  -5  11  236.40   27.24
  -1   5 -11  204.41   17.64
  -1   5 -11  207.23   28.09
   1  -5  12   -0.53    3.24
   1  -5  12   -1.39    3.64
  -1   5 -12    5.80    4.22
  -1   5 -12    3.98    1.88
  -1   5 -13   99.36   10.85
   1  -5  13  110.16   14.06
  -1   5 -13   87.81    8.91
  -1   5 -14  138.55   11.45
  -1   5 -14  126.42   11.28
  -1   5 -14  106.51    8.93
  -1   5 -15  682.05   26.39
   1  -5  15  590.98   29.09
   1  -4 -15  105.97    8.82
   1  -4 -15  101.86   10.50
   1  -4 -14    2.33    2.38
   1  -4 -14    2.08    2.44
   1  -4 -14    0.88    2.04
   1  -4 -13   -1.50    2.08
   1  -4 -13    5.34    4.49
   1  -4 -13   -0.96    2.83
   1  -4 -13    3.84    3.43
   1  -4 -12  114.15   15.96
   1  -4 -12   96.38   12.59
   1  -4 -12  110.15   11.08
   1  -4 -12  108.72   12.81
   1  -4 -11   49.92   13.67
   1  -4 -11   52.57    7.38
   1  -4 -11   49.77   10.01
   1  -4 -11   56.89    8.89
   1  -4 -11   65.55   10.87
   1  -4 -11   67.87   13.56
   1  -4 -10   63.94    8.51
   1  -4 -10   46.98   14.13
   1  -4 -10   50.86    9.18
   1  -4 -10   68.23   11.85
   1  -4 -10   65.25   10.97
   1  -4 -10   84.63   15.22
   1  -4 -10   70.22   11.95
   1  -4 -10   82.65   11.73
   1  -4 -10   71.13   10.39
   1  -4  -9   10.04    3.48
   1  -4  -9    7.42    7.27
   1  -4  -9    3.15    2.93
   1  -4  -9    5.94    2.63
   1  -4  -9    2.66    5.96
   1  -4  -9    5.13    3.12
   1  -4  -9    8.09    3.69
   1  -4  -9    4.73    3.28
   1  -4  -9    4.49    5.01
   1  -4  -8  238.07   21.33
   1  -4  -8  223.73   22.90
   1  -4  -8  236.36   18.49
   1  -4  -8  214.37   17.86
   1  -4  -8  184.06   28.45
   1  -4  -8  205.66   20.76
   1  -4  -8  240.92   18.63
   1  -4  -8  236.50   23.21
   1  -4  -8  182.97   20.15
   1  -4  -8  184.02   20.77
   1  -4  -8  253.17   27.27
   1  -4  -8  217.73   19.37
   1  -4  -7  181.65   18.04
   1  -4  -7  158.15   19.16
   1  -4  -7  151.18   15.45
   1  -4  -7  216.76   18.24
   1  -4  -7  137.86   15.97
   1  -4  -7  180.53   21.08
   1  -4  -7  186.88   23.32
   1  -4  -7  132.08   16.46
   1  -4  -7  136.46   18.07
   1  -4  -6   85.70   17.49
   1  -4  -6  117.75   13.89
   1  -4  -6  109.71   13.59
   1  -4  -6   95.11   20.23
  -1   4   6  124.59   19.91
   1  -4  -5   -6.21    9.91
   1  -4  -5   -7.84   10.25
  -1   4   5    6.66    7.42
   1  -4  -4   45.71   12.54
   1  -4  -4   43.93   21.70
  -1   4   4   40.19   14.15
   1  -4  -3   74.97   13.68
   1  -4  -3   83.30   39.65
  -1   4   3   52.85   16.65
  -1   4   2    1.92   12.64
   1  -4  -2   -5.65   38.83
  -1   4   1   74.71   24.89
   1  -4   0  123.77   14.41
   1  -4   0  155.07   19.11
   1  -4   1  137.35   17.62
   1  -4   1  116.46   13.42
  -1   4  -2 1011.91   92.33
   1  -4   2  932.56  149.81
   1  -4   2  815.55   48.35
  -1   4  -3   23.17   17.38
   1  -4   3   -5.19   26.91
   1  -4   4   36.99   26.06
  -1   4  -4   25.77   12.91
   1  -4   5  815.02   92.64
  -1   4  -5  827.21   62.88
   1  -4   6   60.53   24.09
  -1   4  -6   57.33   14.20
  -1   4  -7  112.97   17.93
  -1   4  -8   96.18   18.56
  -1   4  -9    7.36    7.07
  -1   4  -9    0.71    1.52
   1  -4  10  309.37   32.88
  -1   4 -10  310.08   34.06
  -1   4 -10  261.83   18.41
   1  -4  11    3.37    4.14
   1  -4  11   -1.90    3.88
  -1   4 -11    1.10    5.65
  -1   4 -12  210.56   18.21
   1  -4  12  248.57   25.15
  -1   4 -12  200.13   16.04
  -1   4 -13   60.75    8.92
   1  -4  13   64.78   11.25
  -1   4 -13   67.13    8.45
  -1   4 -14   -0.29    1.61
  -1   4 -14    3.12    2.54
  -1   4 -14    2.02    1.87
  -1   4 -15  185.61   11.77
  -1   4 -15  150.01   10.05
   1  -4  16   16.50    3.23
  -1   4 -16   13.06    2.43
   1  -3 -15  359.91   18.83
   1  -3 -15  382.05   22.26
   1  -3 -14  201.95   15.01
   1  -3 -14  210.77   18.35
   1  -3 -13  180.98   15.84
   1  -3 -13  187.58   14.42
   1  -3 -13  158.75   15.70
   1  -3 -13  174.03   18.08
   1  -3 -12  158.99   13.48
   1  -3 -12  175.63   16.74
   1  -3 -12  167.08   16.24
   1  -3 -12  201.05   16.95
   1  -3 -12  165.98   17.03
   1  -3 -12  180.89   17.06
   1  -3 -12  199.73   20.91
   1  -3 -11  326.21   21.11
   1  -3 -11  349.28   26.12
   1  -3 -11  375.10   26.07
   1  -3 -11  381.51   27.57
   1  -3 -11  365.24   23.42
   1  -3 -11  374.32   26.58
   1  -3 -11  422.02   32.47
   1  -3 -10   85.27   16.87
   1  -3 -10  101.83   11.46
   1  -3 -10  110.88   14.71
   1  -3 -10  104.12   13.95
   1  -3 -10  118.10   13.42
   1  -3 -10  106.85   16.26
   1  -3 -10  102.46   13.50
   1  -3 -10  104.32   14.28
   1  -3  -9    8.74    4.18
   1  -3  -9    3.11    1.83
   1  -3  -9    3.19    6.12
   1  -3  -9    5.18    4.90
   1  -3  -9    5.36    3.28
   1  -3  -9   -0.61    7.34
   1  -3  -9    9.78    3.15
   1  -3  -9    8.22    5.78
   1  -3  -9   -0.74    5.38
   1  -3  -9    6.31    3.83
   1  -3  -8   21.81    6.39
   1  -3  -8   17.30    4.25
   1  -3  -8   14.01    5.89
   1  -3  -8   12.45    3.89
   1  -3  -8   14.12    5.37
   1  -3  -8   16.30    5.34
   1  -3  -8   18.94    6.48
   1  -3  -8   20.93    6.06
   1  -3  -8   29.65    8.12
   1  -3  -8    9.19    4.83
   1  -3  -7  927.52   45.60
   1  -3  -7  973.53   49.77
   1  -3  -6  127.86   20.98
   1  -3  -6  117.30   19.39
   1  -3  -6  125.69   14.17
   1  -3  -5   94.01   16.54
   1  -3  -5   81.14   19.88
  -1   3   5  136.04   19.90
   1  -3  -4   10.21    7.71
  -1   3   4    0.95    5.02
   1  -3  -4   -7.09   12.75
  -1   3   3 1091.16   70.78
   1  -3  -3  929.76  108.47
  -1   3   2   -1.45   10.41
  -1   3   1  474.43   55.24
  -1   3   0  227.66   46.84
   1  -3   0  253.38   21.47
   1  -3   0  256.96   18.52
   1  -3   1 1359.49   59.01
   1  -3   1 1457.68   52.95
  -1   3  -2   43.69   19.65
  -1   3  -3  725.16   61.83
  -1   3  -4  444.33   43.79
   1  -3   4  335.83   60.95
  -1   3  -5 1017.76   61.60
   1  -3   5  734.03   83.95
  -1   3  -6  549.18   40.79
   1  -3   6  517.69   60.26
  -1   3  -7   18.47    6.60
  -1   3  -7   33.16   11.11
  -1   3  -8  262.12   30.80
  -1   3  -9   60.46   15.12
  -1   3  -9   47.46    8.12
   1  -3  10  726.20   50.43
  -1   3 -10  758.94   54.88
  -1   3 -10  618.94   31.64
   1  -3  11  150.96   20.86
  -1   3 -11  152.04   24.33
  -1   3 -11  115.21   11.72
  -1   3 -12  478.80   27.52
  -1   3 -12  511.70   28.10
  -1   3 -13   13.19    3.89
  -1   3 -13   18.97    3.80
  -1   3 -14  135.04   11.98
  -1   3 -15    3.49    2.70
  -1   3 -15    1.71    1.51
   1  -3  16   31.85    5.54
  -1   3 -16   31.52    4.93
  -1   3 -16   26.48    4.11
   1  -2 -16   54.89    5.02
   1  -2 -16   58.30    6.97
   1  -2 -15  210.64   13.73
   1  -2 -15  207.86   16.35
   1  -2 -14  191.87   14.65
   1  -2 -14  193.30   17.59
   1  -2 -13  149.22   14.25
   1  -2 -13  137.74   13.14
   1  -2 -13  141.11   16.31
   1  -2 -12  150.96   13.92
   1  -2 -12  151.91   15.22
   1  -2 -12  134.91   14.47
   1  -2 -12  175.17   16.38
   1  -2 -12  155.45   17.84
   1  -2 -12  168.21   14.38
   1  -2 -11  760.79   35.87
   1  -2 -11  621.90   35.06
   1  -2 -11  665.61   36.99
   1  -2 -11  723.80   42.82
   1  -2 -11  679.91   34.98
   1  -2 -11  685.32   37.40
   1  -2 -10  160.14   22.45
   1  -2 -10  189.54   16.31
   1  -2 -10  163.73   17.32
   1  -2 -10  177.28   17.68
   1  -2 -10  203.41   21.40
   1  -2 -10  185.29   15.70
   1  -2 -10  208.59   19.54
   1  -2  -9   24.22    5.97
   1  -2  -9    9.53    6.19
   1  -2  -9   20.14    5.73
   1  -2  -9   16.22    5.39
   1  -2  -9   16.31    4.44
   1  -2  -9   12.75    4.32
   1  -2  -9   16.76    4.27
   1  -2  -9   16.62    4.72
   1  -2  -8    4.34    6.35
   1  -2  -8    6.00    2.46
   1  -2  -8    8.02    4.81
   1  -2  -8    3.85    3.02
   1  -2  -8    7.95    5.07
   1  -2  -8    7.48    6.12
   1  -2  -7 1101.10   63.04
   1  -2  -7 1107.34   49.83
   1  -2  -7 1134.50   52.08
   1  -2  -6   54.75    8.41
   1  -2  -6   66.56    9.86
   1  -2  -6   55.40    9.17
   1  -2  -5    2.19    5.16
   1  -2  -5   -1.85    8.40
  -1   2   5    6.09    3.66
   1  -2  -4   19.76    6.89
   1  -2  -4    3.49   18.88
  -1   2   4   18.46    6.17
   1  -2  -3 2178.47   81.81
  -1   2   3 1969.09   90.36
  -1   2   2   18.71    8.99
  -1   2   1   22.81   10.53
   1  -2   0  184.57   12.88
  -1   2   0  148.36   28.72
   1  -2   0  160.14   14.73
   1  -2   1  837.68   37.60
  -1   2  -2  444.68   43.98
  -1   2  -3 1092.11   66.39
  -1   2  -4  533.08   40.43
   1  -2   5 1005.78   86.19
  -1   2  -5 1426.73   64.96
  -1   2  -6  340.36   21.91
  -1   2  -6  463.50   37.47
  -1   2  -6  376.67   26.17
   1  -2   6  403.90   43.18
  -1   2  -7    6.77    2.29
  -1   2  -7    3.59    7.04
  -1   2  -8  176.15   17.85
  -1   2  -8  203.73   26.87
  -1   2  -9    2.28    3.29
  -1   2  -9    4.99    4.55
  -1   2  -9   -1.05    2.92
  -1   2  -9    3.02    2.44
  -1   2 -10  884.49   62.40
  -1   2 -10  946.25   41.50
  -1   2 -11  561.25   28.89
  -1   2 -11  329.52   22.08
  -1   2 -12  976.87   42.39
  -1   2 -13   84.61   10.88
  -1   2 -13  104.46   10.20
  -1   2 -15    9.31    3.05
  -1   2 -15    3.91    2.44
   1  -2  16   25.87    4.83
  -1   2 -16   23.73    4.35
   1  -1 -16   15.63    3.60
   1  -1 -16   20.55    4.03
   1  -1 -15   74.40    7.50
   1  -1 -15   92.01   10.65
   1  -1 -14    6.84    2.16
   1  -1 -14    8.93    3.98
   1  -1 -14   16.60    6.92
   1  -1 -13    3.53    3.20
   1  -1 -13    2.32    1.55
   1  -1 -13    0.71    1.65
   1  -1 -13   -2.08    3.49
   1  -1 -13    4.57    2.36
   1  -1 -12  297.17   21.68
   1  -1 -12  306.98   22.38
   1  -1 -12  338.72   27.45
   1  -1 -12  350.49   24.71
   1  -1 -11   73.22   10.45
   1  -1 -11   24.36    5.85
   1  -1 -11   29.21    6.11
   1  -1 -11   92.82   13.78
   1  -1 -10  113.54   13.07
   1  -1 -10  127.39   14.67
   1  -1 -10  131.09   15.10
   1  -1  -9   46.53   10.93
   1  -1  -9   49.89   12.00
   1  -1  -9   20.27    6.50
   1  -1  -9   14.25    3.91
   1  -1  -9   22.93    5.79
   1  -1  -9   28.04    7.22
   1  -1  -9   32.35    8.62
   1  -1  -8   48.89    8.39
   1  -1  -8   54.62    9.97
   1  -1  -8   52.78   11.02
   1  -1  -8   68.81   12.56
   1  -1  -8   58.25   10.54
   1  -1  -7  586.41   41.25
   1  -1  -6  120.28   13.06
  -1   1   5   35.33    5.33
   1  -1  -5   20.65    4.48
   1  -1  -5   37.93   10.26
   1  -1  -4  163.52   19.17
  -1   1   4  197.02   17.18
   1  -1  -3  207.69   18.29
   1  -1  -3  215.63   19.96
  -1   1   3  250.83   22.27
  -1   1   2  413.77   31.18
  -1   1   1   73.15   13.45
  -1   1   0   83.81   16.98
   1  -1   0  119.68   10.30
   1  -1   1  159.55   20.23
   1  -1   2  301.46   25.40
  -1   1  -2  336.95   29.36
   1  -1   3   26.62    6.46
  -1   1  -3   33.56    7.32
   1  -1   4    5.69    2.13
  -1   1  -4    3.41    2.82
   1  -1   5  134.64   24.75
  -1   1  -5  204.72   17.34
  -1   1  -6    4.80    4.90
  -1   1  -6    3.29    6.27
  -1   1  -7  657.02   33.93
  -1   1  -7  659.34   49.87
  -1   1  -8    5.78    3.47
  -1   1  -8   14.65    7.05
  -1   1  -9   31.14    7.80
  -1   1  -9   32.65   11.14
  -1   1  -9   29.55    6.95
  -1   1 -10  386.03   26.10
  -1   1 -10  355.43   37.51
  -1   1 -10  344.42   22.35
  -1   1 -11    5.60    1.91
  -1   1 -12  107.33   11.69
  -1   1 -13  145.98   13.03
  -1   1 -14    6.41    2.92
  -1   1 -14    5.27    2.65
  -1   1 -14    2.71    2.30
  -1   1 -15  387.19   21.61
  -1   1 -15  334.39   18.84
  -1   1 -16    5.02    2.58
  -1   1 -16    7.93    3.18
  -1   1 -17  126.12    8.79
   1   0 -16    6.55    2.53
   1   0 -16    1.23    1.71
   1   0 -15    1.38    0.83
   1   0 -15   70.77    8.52
   1   0 -14  334.02   24.76
   1   0 -14  333.40   21.13
   1   0 -13  263.84   20.37
   1   0 -13  276.26   19.09
   1   0 -12  196.86   14.45
   1   0 -12  178.69   16.09
   1   0 -12  188.82   18.73
   1   0 -11  172.36   15.73
   1   0 -11  223.35   18.82
   1   0 -11  194.50   16.93
   1   0 -10 1828.37   69.51
   1   0 -10 1908.48   73.46
   1   0  -9  408.57   27.38
   1   0  -8  769.28   42.61
   1   0  -8  722.77   36.62
   1   0  -8  715.25   35.59
   1   0  -8  646.94   50.76
   1   0  -7   30.78    8.01
   1   0  -7   21.63    7.74
   1   0  -7   15.38    6.90
   1   0  -7    2.85    3.73
   1   0  -6 1738.42   84.08
   1   0  -5   40.99    9.47
   1   0  -5   52.19   11.47
   1   0  -4 1322.97   66.85
  -1   0   3  176.63   13.71
   1   0  -3  196.62   20.67
   1   0  -2  416.05   21.49
  -1   0   2  411.88   24.43
   1   0  -1  283.90   24.39
  -1   0   1  270.39   20.52
  -1   0   0 2522.38   91.23
   1   0   1  140.01   16.00
  -1   0  -2 1278.37   50.55
  -1   0  -2 1251.20   45.09
  -1   0  -3  695.04   37.39
  -1   0  -3  660.18   34.75
  -1   0  -4  768.65   44.65
  -1   0  -5   44.22   11.85
  -1   0  -6   40.82   10.26
  -1   0  -7 3195.45  129.92
  -1   0  -8 1304.41   74.12
  -1   0  -9   67.58    9.27
  -1   0  -9   59.33    9.24
  -1   0  -9   72.38    9.34
  -1   0 -10  174.99   15.16
  -1   0 -10  192.86   15.42
  -1   0 -10  169.64   15.71
  -1   0 -10  150.66   13.54
  -1   0 -10  159.91   16.04
  -1   0 -10  176.52   14.98
  -1   0 -11  743.48   34.06
  -1   0 -11  742.33   33.82
  -1   0 -11  627.18   33.81
  -1   0 -11  593.36   30.70
  -1   0 -12    5.38    2.75
  -1   0 -12   -0.32    1.79
  -1   0 -12    6.12    3.18
  -1   0 -12    5.83    2.67
  -1   0 -13  141.85   12.44
  -1   0 -13  118.95   11.24
  -1   0 -13  148.96   13.61
  -1   0 -13  158.11   14.84
  -1   0 -14  521.41   23.85
  -1   0 -14  532.33   26.76
  -1   0 -14  544.18   28.19
  -1   0 -15 1566.70   56.68
  -1   0 -15 1680.09   61.58
  -1   0 -15 1528.93   54.29
  -1   0 -16   86.30    9.59
  -1   0 -16   95.87    9.14
  -1   0 -17    1.95    1.07
  -1   0 -17    5.48    2.24
   1   1 -16    4.04    1.68
   1   1 -16    4.69    2.52
   1   1 -15   78.87   10.49
   1   1 -15   80.95    8.94
   1   1 -14  198.40   14.52
   1   1 -13  296.28   18.40
   1   1 -13  340.19   20.84
  -1  -1  13  268.49   21.42
   1   1 -12  208.38   16.09
   1   1 -12  227.36   17.73
   1   1 -12  257.85   18.81
   1   1 -11  134.27   13.95
   1   1 -11  165.38   15.41
   1   1 -10 2098.34   75.75
   1   1 -10 1921.93   72.44
   1   1  -9  444.32   29.31
   1   1  -9  416.67   26.41
   1   1  -9  402.99   27.70
   1   1  -7   40.88    7.65
   1   1  -5   59.22    9.82
  -1  -1   4 1800.70   59.40
   1   1  -4 1882.36   62.75
  -1  -1   3  167.18   14.66
   1   1  -3  114.57   11.12
  -1  -1   2  508.21   25.93
  -1  -1   1  272.29   19.42
  -1  -1   0 1757.55   63.36
  -1  -1  -3  883.55   38.08
  -1  -1  -3  581.71   30.27
  -1  -1  -4  662.42   30.00
   1   1   4  593.78   30.21
  -1  -1  -5   70.65   12.57
  -1  -1  -6   24.95    8.51
  -1  -1  -7 3984.74  124.72
  -1  -1  -8 1703.49   63.14
  -1  -1  -9   56.69    8.19
  -1  -1  -9   70.66    9.68
  -1  -1  -9   46.81    7.95
  -1  -1  -9   42.77    8.20
  -1  -1  -9   51.22    8.59
  -1  -1 -10  143.30   13.48
  -1  -1 -10  161.05   14.49
  -1  -1 -10  147.82   15.02
  -1  -1 -10  164.41   15.64
  -1  -1 -10  110.43   12.99
  -1  -1 -10  100.97   11.75
  -1  -1 -11  612.05   33.87
  -1  -1 -11  646.72   32.95
  -1  -1 -12    4.52    2.43
  -1  -1 -12    5.18    2.87
  -1  -1 -12    4.08    2.17
  -1  -1 -12    8.27    4.49
  -1  -1 -13  118.41   12.17
  -1  -1 -13  162.46   14.64
  -1  -1 -14  526.55   28.30
  -1  -1 -14  522.07   27.60
  -1  -1 -15 1213.33   45.34
  -1  -1 -15 1505.27   50.74
  -1  -1 -17    5.29    2.31
  -1  -1 -17    3.20    1.67
   1   2 -16   18.05    3.95
   1   2 -16   11.95    2.32
   1   2 -15  162.78   14.37
   1   2 -15  115.74   10.47
   1   2 -14   35.22    5.25
  -1  -2  14   42.97    7.32
   1   2 -14   30.77    5.56
   1   2 -13    3.01    1.37
   1   2 -13    6.45    2.99
   1   2 -12  227.48   19.53
   1   2 -12  255.48   19.15
   1   2 -11   89.61   10.87
   1   2 -11   88.83   11.70
   1   2 -11   81.51    9.68
   1   2 -11   92.66   11.67
   1   2 -11   79.41   10.18
   1   2 -10  162.22   14.82
   1   2 -10  153.54   16.60
   1   2 -10  145.97   14.24
   1   2 -10  185.85   16.55
   1   2  -9   61.88    8.84
   1   2  -9   56.16    8.06
   1   2  -9   48.98    8.91
   1   2  -9   58.19    9.40
   1   2  -9   57.96    8.23
   1   2  -8   16.10    6.26
   1   2  -8   19.72   11.83
   1   2  -7  729.93   36.20
   1   2  -7  699.66   51.34
   1   2  -6  244.55   18.61
   1   2  -5   48.24    7.42
  -1  -2   3  231.23   29.38
  -1  -2   2  618.88   49.97
  -1  -2   2  565.50   45.10
  -1  -2   1   45.71   11.92
  -1  -2   1   48.06   17.43
  -1  -2   0   57.77    6.78
  -1  -2   0   33.14   14.47
  -1  -2   0   38.31    5.59
  -1  -2  -1  169.35   16.15
  -1  -2  -1  198.18   16.37
  -1  -2  -1  205.50   14.01
  -1  -2  -2  267.82   26.72
  -1  -2  -2  208.02   25.14
  -1  -2  -3   39.49   10.27
  -1  -2  -3   29.54    9.81
  -1  -2  -4    0.57    4.39
  -1  -2  -4    3.70    6.64
  -1  -2  -5  182.90   20.36
  -1  -2  -6   12.59    6.36
   1   2   6    6.73    2.21
   1   2   6    6.28    3.21
  -1  -2  -7  681.64   41.17
  -1  -2  -7  580.40   31.09
  -1  -2  -8    5.03    2.42
  -1  -2  -8    1.80    2.58
  -1  -2  -9   10.61    4.20
  -1  -2  -9   19.52    6.91
  -1  -2  -9    7.80    3.71
  -1  -2  -9    6.99    4.02
  -1  -2 -10  221.86   17.24
  -1  -2 -10  228.81   19.26
  -1  -2 -10  211.98   18.20
  -1  -2 -10  207.22   17.14
  -1  -2 -10  215.34   18.38
  -1  -2 -11    9.42    2.18
  -1  -2 -11    7.57    3.49
  -1  -2 -11    2.39    2.90
  -1  -2 -11    8.18    4.09
  -1  -2 -11    5.03    4.41
  -1  -2 -11   10.92    2.62
  -1  -2 -11    5.54    1.57
  -1  -2 -11   10.45    3.73
  -1  -2 -12   84.38   11.39
  -1  -2 -12   77.56   12.53
  -1  -2 -12   61.97    9.11
  -1  -2 -13   76.43    9.67
  -1  -2 -13   81.23   12.43
  -1  -2 -14    3.30    2.65
  -1  -2 -14    3.96    2.79
  -1  -2 -14    2.53    3.61
  -1  -2 -15  142.26   14.57
  -1  -2 -16    1.30    1.27
  -1  -2 -17   54.08    6.40
   1   3 -16   46.67    4.73
   1   3 -15  199.98   11.82
   1   3 -15  218.22   14.01
   1   3 -14  202.49   14.09
  -1  -3  14  254.38   19.24
   1   3 -14  215.83   15.76
   1   3 -13  228.04   16.63
   1   3 -13  208.58   15.55
   1   3 -12  192.02   15.91
   1   3 -11  572.10   30.49
   1   3 -11  528.90   29.74
   1   3 -11  583.75   31.98
   1   3 -10  155.67   14.92
   1   3 -10  137.80   13.31
   1   3 -10  150.61   24.09
   1   3 -10  169.58   15.63
   1   3  -9   20.88    5.35
  -1  -3   9    0.62   11.12
   1   3  -9   15.31    6.53
   1   3  -9   10.22    4.71
   1   3  -9   15.34    5.92
   1   3  -8   38.90    7.50
   1   3  -8   43.34   12.71
   1   3  -7 1622.35   60.97
   1   3  -6  248.20   18.41
   1   3  -6  219.37   17.78
   1   3  -5    1.13    3.20
  -1  -3   4   55.90   15.37
  -1  -3   3 2833.24  144.21
  -1  -3   3 2018.82  114.92
  -1  -3   2   57.24   36.39
  -1  -3   2   41.60   25.56
  -1  -3   1    2.13   15.00
  -1  -3   1    8.51    4.19
  -1  -3   1    9.33   22.09
  -1  -3   0  235.87   60.14
  -1  -3   0  210.82   15.37
  -1  -3  -1  929.80   40.97
  -1  -3  -1  908.17   39.46
  -1  -3  -2   92.26   13.41
  -1  -3  -2  155.05   33.78
  -1  -3  -2  121.30   13.73
  -1  -3  -2  102.50   29.31
  -1  -3  -3  848.31   67.43
  -1  -3  -3  478.47   47.55
  -1  -3  -4  449.00   44.73
  -1  -3  -4  249.09   28.92
  -1  -3  -5  905.60   49.36
  -1  -3  -5  841.07   48.44
  -1  -3  -6  302.66   27.45
  -1  -3  -7    8.86    6.30
  -1  -3  -7    7.84    5.74
  -1  -3  -8  289.11   28.03
  -1  -3  -8  354.54   22.07
  -1  -3  -9    1.04    1.99
  -1  -3  -9   -1.47    3.48
  -1  -3  -9    0.90    3.12
  -1  -3  -9    2.50    1.96
  -1  -3  -9    5.80    1.68
  -1  -3  -9    3.27    3.51
  -1  -3  -9    6.25    2.41
  -1  -3  -9    0.48    1.83
  -1  -3 -10  676.11   33.23
  -1  -3 -10  677.76   37.24
  -1  -3 -10  749.70   39.63
  -1  -3 -10  746.77   38.24
  -1  -3 -10  690.93   35.17
  -1  -3 -10  694.43   36.24
  -1  -3 -10  725.33   38.43
  -1  -3 -10  725.25   38.35
  -1  -3 -10  709.25   37.00
  -1  -3 -10  744.10   45.06
  -1  -3 -10  590.11   33.99
  -1  -3 -11  360.70   25.69
  -1  -3 -11  311.96   21.46
  -1  -3 -11  344.67   24.17
  -1  -3 -11  346.76   24.13
  -1  -3 -11  298.26   22.12
  -1  -3 -11  358.48   24.88
  -1  -3 -11  340.95   23.87
  -1  -3 -11  352.88   24.84
  -1  -3 -12  555.89   32.85
  -1  -3 -12  554.63   31.41
  -1  -3 -12  501.10   29.18
  -1  -3 -12  512.46   30.89
  -1  -3 -12  506.26   29.63
  -1  -3 -13   58.21    9.42
  -1  -3 -13   50.89    8.83
  -1  -3 -13   49.83    8.82
  -1  -3 -13   44.72    7.81
  -1  -3 -14  107.58   11.76
  -1  -3 -14  116.13   12.22
  -1  -3 -14  113.75   14.38
  -1  -3 -14  104.16   11.82
  -1  -3 -14  127.51   11.84
  -1  -3 -15    0.28    1.47
  -1  -3 -15   -0.32    2.63
  -1  -3 -15   -0.43    2.52
  -1  -3 -15    0.88    2.00
  -1  -3 -16   25.45    4.74
  -1  -3 -16   23.50    4.69
   1   4 -15  334.21   16.36
  -1  -4  15  362.03   19.46
   1   4 -15  350.98   16.77
   1   4 -14  156.10   12.01
  -1  -4  14  139.46   13.61
   1   4 -14  157.35   12.07
   1   4 -13  226.83   16.31
   1   4 -13  233.37   16.33
   1   4 -12  276.92   31.85
   1   4 -12  242.40   17.34
  -1  -4  11  246.88   23.15
   1   4 -11  215.04   29.58
   1   4 -11  206.33   16.76
  -1  -4  10   54.76   10.64
   1   4 -10   58.26    8.94
   1   4 -10   48.20    7.50
   1   4 -10   54.51   14.50
   1   4 -10   52.33    8.05
   1   4  -9    9.07    5.45
  -1  -4   9   -4.58    7.44
  -1  -4   9   -5.43    5.30
   1   4  -9   12.80    7.98
   1   4  -9    5.88    9.04
   1   4  -9    2.94    6.18
  -1  -4   8   15.66    6.04
  -1  -4   8    4.93    3.78
   1   4  -8    9.01    2.29
   1   4  -8    9.08    7.13
   1   4  -8    7.88    3.25
   1   4  -7 1402.75   54.54
   1   4  -6  198.96   16.20
   1   4  -6  203.49   22.42
   1   4  -5  277.57   19.18
  -1  -4   5  337.04   39.56
  -1  -4   4    1.62   10.09
  -1  -4   3  997.43   84.58
  -1  -4   2  -12.63   20.83
  -1  -4   2  -10.45   19.65
  -1  -4   1  914.12  122.06
  -1  -4   1  636.42   92.24
  -1  -4   0  445.78   96.98
  -1  -4   0  304.68   22.60
  -1  -4   0  301.87   22.14
  -1  -4   0  397.76   94.53
  -1  -4  -1 1459.95   61.47
  -1  -4  -1 1370.87   58.88
  -1  -4  -2   12.51   30.38
  -1  -4  -2    4.31    5.70
  -1  -4  -2    7.05    3.63
  -1  -4  -2   -8.69   18.65
  -1  -4  -3  181.33   35.92
  -1  -4  -3  145.91   19.71
  -1  -4  -3  147.11   33.29
  -1  -4  -4  293.16   39.19
  -1  -4  -5  466.08   30.66
  -1  -4  -5  383.69   38.18
  -1  -4  -6  379.67   33.94
  -1  -4  -6  402.46   34.43
  -1  -4  -6  407.92   29.80
  -1  -4  -7   54.45    7.91
  -1  -4  -7   48.59   11.02
  -1  -4  -8  263.11   30.27
  -1  -4  -8  325.44   20.15
  -1  -4  -8  285.08   21.97
  -1  -4  -9   63.65    8.42
  -1  -4  -9   59.43   12.91
  -1  -4  -9   66.75   10.32
  -1  -4  -9   68.56   11.42
  -1  -4  -9   76.80   10.32
  -1  -4  -9   68.44   11.83
  -1  -4  -9   56.81    9.22
  -1  -4  -9   70.09   11.27
  -1  -4  -9   67.98   10.61
  -1  -4  -9   78.25   11.72
  -1  -4 -10  549.11   43.67
  -1  -4 -10  668.63   31.76
  -1  -4 -10  645.19   38.61
  -1  -4 -10  627.94   32.31
  -1  -4 -10  710.64   38.73
  -1  -4 -10  681.69   36.37
  -1  -4 -10  693.01   38.74
  -1  -4 -10  592.79   34.08
  -1  -4 -10  747.18   40.35
  -1  -4 -11   98.42   10.94
  -1  -4 -11  128.50   15.84
  -1  -4 -11   98.05   13.28
  -1  -4 -11   83.88   12.04
  -1  -4 -11   95.50   12.03
  -1  -4 -11  122.57   14.90
  -1  -4 -11  118.95   13.38
  -1  -4 -12  454.09   30.17
  -1  -4 -12  398.95   26.81
  -1  -4 -12  448.45   28.37
  -1  -4 -12  395.27   26.32
  -1  -4 -12  419.30   27.34
  -1  -4 -13    5.61    3.42
  -1  -4 -13    5.24    3.33
  -1  -4 -13    1.93    1.54
  -1  -4 -13   -0.81    3.88
  -1  -4 -13    2.45    3.47
  -1  -4 -14  143.95   13.96
  -1  -4 -14  147.57   13.03
  -1  -4 -14  141.34   13.79
  -1  -4 -14  144.43   13.93
  -1  -4 -15   -1.66    1.15
  -1  -4 -15    1.79    1.50
  -1  -4 -16   30.00    4.56
  -1  -4 -16   26.37    5.07
   1   5 -15  145.43    9.67
  -1  -5  15  139.22   10.73
   1   5 -14    8.67    2.53
  -1  -5  14    5.07    3.01
   1   5 -13    3.14    2.55
  -1  -5  13   -0.43    2.03
  -1  -5  12  184.36   18.57
   1   5 -12  142.50   13.67
   1   5 -12  180.28   25.36
   1   5 -12  153.30   12.76
  -1  -5  11    7.00    3.48
   1   5 -11    8.16    5.14
   1   5 -11    5.69    2.66
  -1  -5  10  137.36   17.09
  -1  -5  10  123.46   14.91
   1   5 -10  149.74   24.02
  -1  -5   9   29.63   11.44
  -1  -5   9   22.14    8.20
   1   5  -9   39.68    7.54
   1   5  -9   41.49   14.38
  -1  -5   8  184.17   19.96
  -1  -5   8  188.58   21.95
   1   5  -8  230.07   19.07
   1   5  -8  217.95   17.07
  -1  -5   7  152.90   19.98
  -1  -5   7  164.80   18.84
   1   5  -7  162.52   14.64
   1   5  -6   82.63   10.40
   1   5  -6  102.12   19.32
   1   5  -5  100.40    9.93
  -1  -5   5  107.49   26.14
  -1  -5   4  177.83   37.34
  -1  -5   3   12.05    9.77
  -1  -5   2   52.73   25.60
  -1  -5   1  224.20   65.68
  -1  -5   1  158.96   19.16
  -1  -5   0    3.87   26.07
  -1  -5   0   66.63   41.06
  -1  -5   0   47.31   11.17
  -1  -5   0   46.15   10.50
  -1  -5  -1   72.45   14.14
  -1  -5  -1   59.12   11.35
  -1  -5  -1   58.00   11.47
  -1  -5  -2  599.56   42.20
  -1  -5  -2  521.82   37.03
  -1  -5  -3   49.64   12.92
  -1  -5  -3   60.98   27.05
  -1  -5  -4   85.68   16.54
  -1  -5  -4  109.82   27.57
  -1  -5  -4  114.77   14.99
  -1  -5  -5  230.81   36.62
  -1  -5  -5  229.06   23.43
  -1  -5  -6   -5.72    6.27
  -1  -5  -6    0.58    4.75
  -1  -5  -7   79.81   17.11
   1   5   7  110.91   22.15
  -1  -5  -8   75.34   17.54
  -1  -5  -8   77.04   11.39
  -1  -5  -8   67.87   12.84
  -1  -5  -8   61.23   10.12
  -1  -5  -8   75.53   12.41
  -1  -5  -8   65.44   11.07
  -1  -5  -8   87.81   13.48
  -1  -5  -9    4.92    7.04
  -1  -5  -9    2.38    3.87
  -1  -5  -9    5.37    4.01
  -1  -5  -9    5.35    3.47
  -1  -5  -9    3.45    3.61
  -1  -5  -9   -2.55    3.37
  -1  -5  -9   13.02    7.93
  -1  -5 -10  228.00   27.83
  -1  -5 -10  212.50   18.58
  -1  -5 -10  222.21   21.78
  -1  -5 -10  251.31   23.01
  -1  -5 -10  208.89   19.83
  -1  -5 -10  225.72   20.35
  -1  -5 -11   25.00    6.38
  -1  -5 -11   18.24    6.32
  -1  -5 -11   26.41    7.22
  -1  -5 -11   23.02    6.61
  -1  -5 -11   28.78    7.42
  -1  -5 -11   33.36    8.87
  -1  -5 -12  166.71   17.03
  -1  -5 -12  165.11   17.21
  -1  -5 -12  158.02   16.16
  -1  -5 -13   27.10    7.54
  -1  -5 -13   20.61    5.38
  -1  -5 -13   27.32    6.35
  -1  -5 -13   26.44    6.19
  -1  -5 -14    0.71    2.25
  -1  -5 -14   -0.99    1.90
  -1  -5 -14    2.36    2.63
  -1  -5 -15  180.69   13.47
  -1  -5 -15  158.28   12.49
  -1  -6  14  104.15   11.19
   1   6 -14   96.61    9.20
  -1  -6  13   91.46   11.36
   1   6 -13   79.32    8.84
  -1  -6  12  184.23   18.49
  -1  -6  11   47.51   10.06
  -1  -6  11   49.35    8.93
   1   6 -11   37.88   13.95
  -1  -6  10  794.34   43.66
  -1  -6  10  794.21   48.49
  -1  -6   9  146.13   19.17
  -1  -6   9  156.19   17.54
   1   6  -9  163.67   15.72
   1   6  -9  204.77   30.07
  -1  -6   8  113.79   16.07
  -1  -6   8  123.90   18.78
   1   6  -8  121.90   13.95
  -1  -6   7   77.55   17.70
   1   6  -7   50.15   12.04
  -1  -6   7   36.87   18.42
   1   6  -6  384.88   40.65
  -1  -6   5   52.70   12.25
  -1  -6   5   29.45    7.46
   1   6  -5   26.22    9.99
  -1  -6   5   34.09   15.70
  -1  -6   4 1138.16   97.08
  -1  -6   3  318.31   65.66
  -1  -6   2  590.82   90.07
  -1  -6   2  773.22   51.79
  -1  -6   1  204.48   70.79
  -1  -6   1  149.68   20.29
  -1  -6   1  175.24   21.81
  -1  -6   0 1277.91   66.93
  -1  -6   0 1077.67   61.27
  -1  -6   0  948.09  136.24
  -1  -6   0 1174.09   62.12
  -1  -6  -1  607.54   48.69
  -1  -6  -2  565.87   45.08
  -1  -6  -2  557.19   41.56
  -1  -6  -3  690.21   52.80
  -1  -6  -3  724.54   45.07
  -1  -6  -3  663.19   95.33
  -1  -6  -4  465.66   43.54
  -1  -6  -4  461.64   65.61
  -1  -6  -4  524.35   36.30
  -1  -6  -5   60.46   17.70
  -1  -6  -5   52.35   28.18
  -1  -6  -6   10.63    7.92
   1   6   6    9.68   11.97
  -1  -6  -6    6.81    3.15
  -1  -6  -7  690.58   44.84
   1   6   7  970.99   76.57
  -1  -6  -7  737.82   42.08
  -1  -6  -7  822.08   46.87
  -1  -6  -7 1069.97   48.03
  -1  -6  -7  768.30   45.33
  -1  -6  -8  368.87   39.26
  -1  -6  -8  377.81   30.67
  -1  -6  -8  370.21   25.24
  -1  -6  -8  460.31   31.32
  -1  -6  -8  325.77   25.79
  -1  -6  -8  404.85   29.11
  -1  -6  -9   61.64   15.24
  -1  -6  -9   54.66    9.63
  -1  -6  -9   44.84   10.78
  -1  -6  -9   42.76    9.67
  -1  -6  -9   52.04   12.05
  -1  -6  -9   42.30    9.02
  -1  -6 -10    4.28    5.93
  -1  -6 -10    6.31    3.71
  -1  -6 -10    4.47    4.19
  -1  -6 -10   -3.27    4.66
  -1  -6 -10    0.66    5.31
  -1  -6 -10   16.87    7.84
  -1  -6 -10    0.51    3.65
  -1  -6 -11  379.91   37.72
  -1  -6 -11  455.00   32.53
  -1  -6 -11  371.54   27.07
  -1  -6 -11  440.24   31.42
  -1  -6 -11  457.10   30.81
  -1  -6 -11  368.48   28.42
  -1  -6 -11  381.18   24.69
  -1  -6 -12    0.84    1.86
  -1  -6 -12   -2.41    2.33
  -1  -6 -12   -0.46    2.51
  -1  -6 -12   -0.47    1.68
  -1  -6 -12    1.79    3.37
  -1  -6 -13   66.62    9.94
  -1  -6 -13   50.51    8.27
  -1  -6 -13   53.86    9.05
  -1  -6 -13   73.75    9.67
  -1  -6 -14  103.39   10.62
  -1  -6 -14  124.98   11.70
  -1  -6 -15  598.09   26.62
  -1  -6 -15  575.42   24.49
   1   7 -14   84.80    8.21
  -1  -7  13   72.90    9.71
  -1  -7  12  171.47   16.56
   1   7 -12  160.15   13.65
  -1  -7  11   13.52    4.63
  -1  -7  11   16.13    5.15
   1   7 -11   16.75    4.83
  -1  -7  10  681.99   39.54
  -1  -7  10  685.17   43.99
  -1  -7   9  122.60   18.14
  -1  -7   9  106.84   14.82
   1   7  -9  157.16   26.69
   1   7  -8   79.69   11.19
  -1  -7   8   65.56   14.28
  -1  -7   8   58.83   13.27
  -1  -7   7   60.64   17.11
   1   7  -7   57.83   10.92
  -1  -7   7   53.85   19.06
   1   7  -6  624.40   34.15
  -1  -7   6  559.58   49.45
  -1  -7   6  661.10   49.88
  -1  -7   6  507.27   66.18
   1   7  -6  484.67   50.60
  -1  -7   5    8.06   10.40
  -1  -7   5    9.81   12.35
   1   7  -5   -3.07    4.45
  -1  -7   4  642.14   55.72
   1   7  -4  626.02   62.57
  -1  -7   4  684.92   80.40
  -1  -7   3  224.17   30.42
  -1  -7   3  138.89   42.80
  -1  -7   2  674.63   47.01
  -1  -7   2  639.30   50.44
  -1  -7   2  614.23   51.17
  -1  -7   2  572.39   89.91
  -1  -7   1  284.03   31.95
  -1  -7   1  256.37   29.66
  -1  -7   1  254.42   30.04
  -1  -7   0  631.83   50.15
  -1  -7   0  564.89   45.35
  -1  -7   0  476.37   94.49
  -1  -7   0  545.56   44.29
  -1  -7  -1  137.41   28.03
  -1  -7  -1   96.03   22.41
  -1  -7  -2  419.55   43.27
  -1  -7  -2  291.66   27.74
  -1  -7  -3  370.63   41.95
  -1  -7  -3  323.71   69.10
  -1  -7  -3  286.19   31.24
  -1  -7  -4  328.52   38.61
  -1  -7  -4  314.99   59.75
  -1  -7  -4  309.57   29.36
  -1  -7  -4  341.70   27.79
  -1  -7  -4  377.15   25.74
   1   7   5   45.10   34.49
  -1  -7  -5   -4.64   17.71
  -1  -7  -5   20.10   14.84
  -1  -7  -5    3.53   13.07
  -1  -7  -6   24.57    7.27
   1   7   6   34.44   18.18
  -1  -7  -6   13.23   10.08
  -1  -7  -6   34.83   11.95
  -1  -7  -6   26.89    7.05
  -1  -7  -6   31.94    9.36
  -1  -7  -6   34.07    9.84
  -1  -7  -7  799.35   48.53
  -1  -7  -7  657.05   58.48
  -1  -7  -7  742.97   68.93
  -1  -7  -7  928.20   58.43
   1   7   7 1008.59   86.39
  -1  -7  -7  929.18   56.22
  -1  -7  -7 1079.80   49.70
  -1  -7  -7  928.58   51.63
  -1  -7  -7  674.10   41.41
  -1  -7  -8  287.31   27.54
  -1  -7  -8  302.79   29.86
  -1  -7  -8  343.22   27.06
  -1  -7  -8  321.01   28.02
  -1  -7  -8  272.42   23.70
  -1  -7  -8  287.50   31.29
  -1  -7  -9  103.53   16.17
  -1  -7  -9  108.99   12.71
  -1  -7  -9  125.19   16.16
  -1  -7  -9   96.19   13.70
  -1  -7  -9   96.63   14.53
  -1  -7 -10    9.92    7.30
  -1  -7 -10    2.64    4.95
  -1  -7 -10    1.77    3.12
  -1  -7 -10    3.96    3.95
  -1  -7 -10   14.09    6.90
  -1  -7 -10    1.03    5.26
  -1  -7 -10    1.64    3.80
  -1  -7 -11  322.35   35.26
  -1  -7 -11  365.91   29.26
  -1  -7 -11  333.81   26.71
  -1  -7 -11  408.67   27.98
  -1  -7 -11  286.46   24.44
  -1  -7 -11  299.01   24.26
  -1  -7 -12    1.01    2.82
  -1  -7 -12    1.67    3.39
  -1  -7 -12    1.20    2.72
  -1  -7 -12    3.58    3.35
  -1  -7 -12    0.45    2.33
  -1  -7 -13   58.41    9.67
  -1  -7 -13   50.01    7.83
  -1  -7 -13   53.89    8.23
  -1  -7 -14  123.35   10.84
  -1  -7 -15  484.79   20.40
  -1  -8  13   13.06    3.54
   1   8 -13   13.65    3.17
  -1  -8  12  135.45   11.77
   1   8 -12  115.30   10.30
  -1  -8  11   60.42   11.03
   1   8 -11   27.34    5.99
  -1  -8  10   56.84    9.78
  -1  -8  10   51.15   10.28
  -1  -8  10   47.01   10.04
   1   8 -10   44.39    7.50
  -1  -8   9   60.44   12.74
  -1  -8   9   48.31   12.80
   1   8  -9   73.21   18.52
   1   8  -9   39.27    7.97
  -1  -8   8    2.72    2.82
   1   8  -8    1.83    2.14
  -1  -8   8    3.96    4.84
  -1  -8   7  428.49   35.14
   1   8  -7  428.80   28.30
  -1  -8   7  374.41   35.11
  -1  -8   6   91.46   19.52
  -1  -8   6   58.55   22.53
   1   8  -6   75.13   19.92
  -1  -8   5   16.75    8.95
  -1  -8   5    4.64    7.52
  -1  -8   5   -3.30    4.71
   1   8  -5    9.99   11.71
  -1  -8   5   -2.20    6.99
  -1  -8   4   42.38   15.85
  -1  -8   4   61.54   16.47
  -1  -8   4   50.11   15.73
   1   8  -4   34.88   15.03
  -1  -8   4   21.11   18.45
  -1  -8   3   27.01    5.98
  -1  -8   3   14.27    6.72
  -1  -8   3   23.95   12.99
  -1  -8   3   28.07   16.53
   1   8  -3   10.77   11.53
  -1  -8   3   23.35    7.62
  -1  -8   3   27.11    9.74
  -1  -8   3   39.31   11.93
  -1  -8   2  196.78   24.36
  -1  -8   2  165.42   24.68
  -1  -8   2  242.31   31.20
  -1  -8   2  264.72   62.30
  -1  -8   2  200.31   24.64
  -1  -8   2  245.71   32.15
  -1  -8   2  193.33   26.81
  -1  -8   1   26.71   10.38
  -1  -8   1   27.00   12.28
  -1  -8   1   45.30   14.10
  -1  -8   1   45.27   27.07
  -1  -8   1   28.92    9.32
  -1  -8   1   32.75   12.24
  -1  -8   0   13.99   15.65
  -1  -8   0   26.84   12.90
  -1  -8   0   23.77    9.60
  -1  -8   0   20.75   26.38
  -1  -8   0    5.13    8.66
  -1  -8  -1  122.02   24.79
  -1  -8  -1  109.17   20.98
  -1  -8  -1  101.60   19.61
  -1  -8  -2   57.98   18.56
  -1  -8  -2   35.76   12.72
  -1  -8  -2   74.39   11.01
  -1  -8  -3   59.61   19.18
  -1  -8  -3   33.20   12.95
  -1  -8  -3   44.43   15.50
  -1  -8  -3   66.31   12.34
  -1  -8  -3   43.41   15.57
  -1  -8  -4    7.47    4.17
  -1  -8  -4    9.22   10.52
   1   8   4   -9.80   18.44
  -1  -8  -4   13.65   19.07
  -1  -8  -4   -4.10    9.13
  -1  -8  -4   21.50    9.00
  -1  -8  -4   16.53    6.35
  -1  -8  -4  -10.82   10.58
  -1  -8  -5   69.70   12.50
   1   8   5   93.43   34.14
  -1  -8  -5   68.29   24.29
  -1  -8  -5   86.06   15.97
  -1  -8  -5   51.45   16.75
  -1  -8  -5   76.93   16.25
  -1  -8  -5   87.52   13.58
  -1  -8  -6    9.11    5.26
  -1  -8  -6   -2.85    3.21
  -1  -8  -6   10.68    6.12
   1   8   6   18.50   10.20
  -1  -8  -6    2.23    6.68
  -1  -8  -6    3.39    6.76
  -1  -8  -6    8.02    4.06
  -1  -8  -6   -0.60    3.84
  -1  -8  -6    8.08    6.82
  -1  -8  -6   -2.54    7.11
  -1  -8  -7   98.75   16.09
  -1  -8  -7   70.07   19.32
  -1  -8  -7   83.52   15.39
  -1  -8  -7  120.65   18.59
  -1  -8  -7  117.19   20.09
  -1  -8  -7  132.47   16.57
  -1  -8  -7   99.08   19.12
  -1  -8  -8   27.83   13.52
  -1  -8  -8   32.41   16.46
  -1  -8  -8   21.46   10.04
  -1  -8  -8   40.77   13.76
  -1  -8  -9    5.70    3.36
  -1  -8  -9    2.60    4.17
  -1  -8  -9    0.59    2.94
  -1  -8  -9    0.99    5.07
  -1  -8  -9    3.48    4.18
  -1  -8 -10  174.81   20.63
  -1  -8 -10  158.31   23.25
  -1  -8 -10  137.42   16.46
  -1  -8 -10  142.84   18.06
  -1  -8 -11    6.30    4.02
  -1  -8 -11    9.22    5.40
  -1  -8 -11   12.11    4.89
  -1  -8 -11   10.08    5.59
  -1  -8 -12   93.45   12.23
  -1  -8 -12   91.51   10.93
  -1  -8 -12   79.47   11.12
  -1  -8 -12   74.53    9.95
  -1  -8 -12   84.55   14.30
  -1  -8 -13   24.95    6.35
  -1  -8 -13   23.83    5.12
  -1  -8 -13   20.66    5.65
  -1  -8 -14    3.87    2.45
  -1  -9  12   92.07    9.82
  -1  -9  12  100.87    9.15
   1   9 -12  103.69    8.75
  -1  -9  11  222.03   19.63
  -1  -9  11  209.57   19.08
  -1  -9  10   43.44   10.12
  -1  -9  10   59.20   12.30
  -1  -9  10   41.30    9.44
   1   9 -10   33.53    6.70
  -1  -9   9   53.04   15.39
  -1  -9   9   63.66   15.25
  -1  -9   9   67.77   14.33
   1   9  -9   19.87    7.22
  -1  -9   8   31.14   11.19
  -1  -9   8   38.57   11.26
  -1  -9   8   27.56   10.24
  -1  -9   8   36.67   16.35
  -1  -9   8   40.19   21.98
   1   9  -8   16.01    6.08
  -1  -9   7 1203.37   66.69
   1   9  -7 1316.41   55.79
  -1  -9   7 1358.03   69.17
  -1  -9   7 1443.78  108.38
  -1  -9   7 1579.98  106.26
   1   9  -7 1158.17   52.47
  -1  -9   6   81.66   16.38
   1   9  -6  100.59   13.23
  -1  -9   6   83.76   16.00
  -1  -9   6   83.59   16.11
  -1  -9   6  114.85   28.98
   1   9  -6  112.60   25.51
  -1  -9   6  105.87   25.80
   1   9  -6   76.17   10.75
  -1  -9   5   54.66   12.41
  -1  -9   5   38.30   13.50
  -1  -9   5   26.65   21.06
  -1  -9   5   42.97   19.54
   1   9  -5   47.14   14.51
  -1  -9   5   77.89   21.19
  -1  -9   5   30.36    9.35
  -1  -9   4  107.85   21.35
  -1  -9   4   82.03   14.46
  -1  -9   4   80.42   22.69
   1   9  -4   82.72   24.51
  -1  -9   4  146.71   29.26
  -1  -9   4  137.41   27.04
  -1  -9   4   95.03   33.14
   1   9  -4   66.32   11.61
  -1  -9   3  508.52   31.74
  -1  -9   3  452.83   43.85
  -1  -9   3  519.22   42.90
  -1  -9   3  695.68   60.75
   1   9  -3  432.57   58.62
  -1  -9   3  585.15   88.08
  -1  -9   3  655.30   56.52
  -1  -9   2   21.94    9.71
  -1  -9   2   -1.05    9.66
  -1  -9   2   14.49   12.01
  -1  -9   2   14.38    6.08
  -1  -9   2    9.44   13.77
  -1  -9   2   -3.78    7.81
   1   9  -2    7.41    6.61
  -1  -9   1   16.22    7.74
  -1  -9   1   15.83    9.41
  -1  -9   1   30.54   38.12
  -1  -9   1   23.37   11.67
   1   9  -1    8.22    7.83
  -1  -9   1   17.97    9.29
  -1  -9   0  246.64   26.53
  -1  -9   0  299.60   27.23
  -1  -9   0  357.15   46.06
  -1  -9   0  330.23   84.65
  -1  -9   0  461.79   45.72
  -1  -9   0  353.20   40.21
  -1  -9  -1  596.21   34.50
  -1  -9  -1  589.51   60.19
   1   9   1  795.72   97.27
  -1  -9  -1  683.80   61.39
  -1  -9  -1  749.46   40.88
  -1  -9  -2   28.38   13.82
   1   9   2   26.29    8.79
  -1  -9  -2    9.80    7.70
  -1  -9  -2   38.16    7.92
  -1  -9  -3   30.29   15.88
  -1  -9  -3    4.52   30.71
   1   9   3   44.67   26.66
  -1  -9  -3    6.43    9.07
  -1  -9  -3   10.31    5.23
  -1  -9  -4  277.57   40.08
   1   9   4  434.30   75.50
  -1  -9  -4  347.23   71.43
  -1  -9  -4  360.02   29.45
  -1  -9  -4  338.43   37.09
   1   9   5  297.37   57.33
  -1  -9  -5  233.15   34.00
  -1  -9  -5  208.37   48.73
  -1  -9  -5  286.55   32.06
  -1  -9  -5  250.76   21.73
  -1  -9  -5  238.69   23.02
  -1  -9  -5  242.54   28.21
  -1  -9  -6   25.01    7.49
  -1  -9  -6   31.17   15.66
  -1  -9  -6   22.53    9.49
  -1  -9  -6   22.36   13.07
   1   9   6   23.21   13.14
  -1  -9  -6   21.01    9.73
  -1  -9  -6   45.56   12.53
  -1  -9  -6   37.48    8.41
  -1  -9  -6   26.61    9.89
  -1  -9  -6   36.03    9.96
  -1  -9  -7   40.63   10.50
  -1  -9  -7   41.63   15.75
  -1  -9  -7   25.03   12.74
  -1  -9  -7   28.05    7.95
  -1  -9  -7   40.22    9.46
  -1  -9  -7   49.38   11.50
  -1  -9  -7   48.26    9.91
  -1  -9  -7   61.08   13.48
  -1  -9  -8  381.75   35.42
  -1  -9  -8  358.35   43.44
  -1  -9  -8  299.36   32.79
  -1  -9  -8  371.55   33.58
  -1  -9  -9   84.58   14.03
  -1  -9  -9   59.33   15.97
  -1  -9  -9   74.26   13.73
  -1  -9  -9   52.90   13.25
  -1  -9  -9   85.27   12.78
  -1  -9 -10  383.49   29.51
  -1  -9 -10  292.87   30.53
  -1  -9 -10  307.64   25.53
  -1  -9 -10  323.97   24.48
  -1  -9 -11  132.79   14.57
  -1  -9 -11  152.04   19.95
  -1  -9 -11  136.56   14.77
  -1  -9 -11  138.70   13.92
  -1  -9 -12  303.30   18.64
  -1  -9 -12  309.84   25.53
  -1  -9 -12  293.31   19.19
  -1  -9 -13    1.88    1.72
  -1  -9 -13    6.58    3.77
  -1  -9 -13    6.65    3.01
  -1 -10  11  111.90   10.94
  -1 -10  11  116.83   12.90
   1  10 -11   95.47    9.01
  -1 -10  10   23.35    7.34
  -1 -10  10   17.44    6.63
   1  10 -10    9.44    3.21
  -1 -10   9   65.54   14.41
  -1 -10   9   59.91   12.23
  -1 -10   9   51.67   12.23
   1  10  -9   18.44    6.28
  -1 -10   8    3.87    4.99
  -1 -10   8   11.70    5.76
   1  10  -8    1.08    1.95
   1  10  -7  580.30   31.91
  -1 -10   7  563.23   40.61
  -1 -10   7  493.49   37.50
  -1 -10   7  568.13   65.93
   1  10  -7  521.79   29.87
  -1 -10   6   52.49   10.86
   1  10  -6   74.17   10.96
  -1 -10   6   47.74   12.25
  -1 -10   6   96.31   27.26
  -1 -10   6   58.03   20.77
  -1 -10   6   51.49   14.44
   1  10  -6   64.74    9.56
  -1 -10   5   62.29   16.12
  -1 -10   5   61.11   11.68
  -1 -10   5   76.91   22.93
   1  10  -5   60.91   20.50
  -1 -10   5   44.64   13.66
  -1 -10   5  110.20   25.65
   1  10  -5   81.07   11.46
  -1 -10   4   90.06   20.85
  -1 -10   4   85.11   18.77
  -1 -10   4   47.53   11.06
  -1 -10   4   73.37   22.81
  -1 -10   4   80.63   22.09
  -1 -10   4   50.83   20.04
  -1 -10   4  109.35   39.42
   1  10  -4   70.22   22.75
  -1 -10   3  705.27   49.05
  -1 -10   3  588.58   48.58
  -1 -10   3  625.89   93.60
   1  10  -3  654.79   72.63
  -1 -10   2   15.59    7.89
  -1 -10   2   19.69    7.95
  -1 -10   2   38.66   14.72
  -1 -10   2   24.13   28.12
   1  10  -2   29.44   16.63
  -1 -10   2    2.02    7.43
  -1 -10   1   50.32   11.63
  -1 -10   1   65.51   12.72
   1  10  -1   65.93   26.31
  -1 -10   1   54.08   15.23
  -1 -10   1   31.10   14.76
  -1 -10   1   75.98   18.94
  -1 -10   1   75.66   13.50
  -1 -10   0  280.37   25.39
  -1 -10   0  288.73   39.30
  -1 -10   0  214.05   70.93
  -1 -10   0  399.48   31.84
  -1 -10  -1  501.31   52.83
   1  10   1  615.42   87.94
  -1 -10  -1  567.19   38.25
   1  10   2   26.78   11.35
  -1 -10  -2   21.92   13.89
  -1 -10  -2   38.75   25.41
  -1 -10  -2   36.61   10.84
  -1 -10  -3  149.18   46.88
   1  10   3  122.80   41.42
  -1 -10  -3  107.57   14.96
  -1 -10  -3  102.10   17.41
  -1 -10  -4  341.55   50.22
  -1 -10  -4  320.92   71.35
  -1 -10  -4  408.50   40.13
  -1 -10  -4  466.16   34.93
  -1 -10  -5  205.63   35.56
  -1 -10  -5  224.52   35.34
  -1 -10  -5  134.99   38.74
  -1 -10  -5  220.83   30.92
  -1 -10  -5  213.35   25.82
  -1 -10  -5  258.58   22.33
  -1 -10  -5  215.79   22.83
  -1 -10  -6   86.19   20.72
   1  10   6  166.38   39.17
  -1 -10  -6   91.29   21.69
  -1 -10  -6   96.57   17.89
  -1 -10  -6  107.20   16.11
  -1 -10  -6  130.15   15.24
  -1 -10  -6  144.78   19.89
  -1 -10  -6  105.88   13.68
  -1 -10  -7    4.20    9.15
  -1 -10  -7   -1.60    3.80
  -1 -10  -7    2.08    6.22
  -1 -10  -7   22.38    6.08
  -1 -10  -7    3.56    6.50
  -1 -10  -8  151.44   26.44
  -1 -10  -8  150.89   22.08
  -1 -10  -8  235.11   20.73
  -1 -10  -8  221.24   28.02
  -1 -10  -9   10.52    6.58
  -1 -10  -9    6.33    7.78
  -1 -10  -9    3.40    3.53
  -1 -10 -10  268.68   20.35
  -1 -10 -10  248.18   20.76
  -1 -10 -10  247.32   26.12
  -1 -10 -10  264.90   21.31
  -1 -10 -11   78.51    9.46
  -1 -10 -11   78.07    9.93
  -1 -10 -11   79.41    9.95
  -1 -10 -12  206.07   13.93
  -1 -10 -12  191.85   14.05
  -1 -11  10  174.93   13.23
  -1 -11  10  161.82   12.96
  -1 -11   9   31.54    6.43
   1  11  -9   32.63    5.15
  -1 -11   8    2.32    3.23
   1  11  -8   -0.86    1.59
  -1 -11   7   71.21   13.13
  -1 -11   7   64.65   12.77
  -1 -11   7   61.69   10.58
   1  11  -6   12.73    4.44
  -1 -11   6   20.74    8.66
  -1 -11   6   13.77    6.34
  -1 -11   6    5.48    4.83
  -1 -11   5  124.09   19.44
  -1 -11   5  101.57   13.17
  -1 -11   5  114.02   18.53
  -1 -11   5  108.76   21.45
  -1 -11   4  221.12   25.73
  -1 -11   4  189.05   24.30
  -1 -11   4  304.65   40.65
   1  11  -4  257.43   40.94
  -1 -11   4  230.28   31.12
  -1 -11   3   15.06    6.37
  -1 -11   3   26.90   10.47
  -1 -11   3   29.79   12.53
  -1 -11   3   32.19   13.67
   1  11  -3   17.36   14.57
  -1 -11   3   20.28    5.96
  -1 -11   2  111.00   16.88
  -1 -11   2   70.38   14.74
  -1 -11   2   69.57   34.92
   1  11  -2   94.65   26.66
  -1 -11   2   75.93   23.16
  -1 -11   2   86.68   14.19
  -1 -11   1    3.81    3.58
   1  11  -1   -2.69    8.43
  -1 -11   1    3.38    6.43
  -1 -11   1    2.01    7.68
  -1 -11   1    9.65    4.54
  -1 -11   0   -5.70   18.66
  -1 -11   0    1.30    7.54
  -1 -11   0   19.06    7.44
  -1 -11  -1   47.23   18.00
   1  11   1   42.29   24.70
  -1 -11  -1   92.06   15.24
  -1 -11  -2   16.18   11.47
  -1 -11  -2  -17.02   11.46
   1  11   2   26.64   16.62
  -1 -11  -2   16.59    6.28
  -1 -11  -3   25.83   17.51
  -1 -11  -3   14.73   24.12
  -1 -11  -3    1.54    7.04
   1  11   3   57.52   29.38
  -1 -11  -3   25.01   17.12
  -1 -11  -3   19.43    8.66
  -1 -11  -3   34.82   11.51
  -1 -11  -4    3.74    4.31
   1  11   4   -3.61   13.23
  -1 -11  -4   15.56   10.39
  -1 -11  -4   18.30    6.49
  -1 -11  -4    4.16    6.49
  -1 -11  -5   26.80   14.07
   1  11   5   39.41   25.73
  -1 -11  -5   30.63   12.45
  -1 -11  -5    4.29    7.18
  -1 -11  -5   52.65   13.71
  -1 -11  -5   72.65   12.88
  -1 -11  -5   26.52   13.11
  -1 -11  -6  135.07   21.56
  -1 -11  -6  183.85   27.78
  -1 -11  -6  131.83   17.78
  -1 -11  -6  136.11   15.30
  -1 -11  -6  164.67   17.45
  -1 -11  -7   73.33   15.95
  -1 -11  -7   58.48   11.95
  -1 -11  -7   52.02    9.20
  -1 -11  -8   -0.73    4.71
  -1 -11  -8   17.14    6.51
  -1 -11  -9    4.85    3.34
  -1 -11  -9    5.33    3.11
  -1 -11 -10   41.25    7.12
  -1 -11 -10   46.90    7.93
  -1 -11 -10   44.80    6.93
  -1 -11 -11   51.15    6.03
  -1 -11 -11   38.38    6.02
  -1 -11 -11   41.77    6.87
  -1 -12   9    2.88    1.25
  -1 -12   9   81.35    8.64
  -1 -12   8   26.81    6.11
  -1 -12   8   30.58    6.78
  -1 -12   7   36.57    8.90
  -1 -12   6  294.58   25.54
   1  12  -5    1.73    2.56
  -1 -12   5   -1.33    2.75
  -1 -12   5   -1.79    3.74
  -1 -12   4  258.25   25.14
  -1 -12   4  290.69   33.43
  -1 -12   3  168.07   20.24
  -1 -12   3  161.79   29.16
  -1 -12   3  207.81   21.68
  -1 -12   2  306.41   25.84
  -1 -12   2  325.95   44.50
  -1 -12   2  361.51   30.15
   1  12  -1   69.28   23.68
  -1 -12   1  115.18   29.36
  -1 -12   1  122.77   17.69
  -1 -12   0  315.42   21.98
  -1 -12   0  317.47   49.01
  -1 -12   0  305.38   73.51
  -1 -12   0  401.76   32.99
   1  12   1  158.65   42.02
  -1 -12  -1  180.09   38.12
  -1 -12  -1  126.22   25.62
  -1 -12  -1  181.54   22.99
  -1 -12  -2   89.95   20.86
  -1 -12  -2   87.50   15.32
  -1 -12  -3  196.34   33.60
  -1 -12  -3  306.96   46.11
  -1 -12  -3  299.03   27.92
  -1 -12  -4  249.85   36.06
  -1 -12  -4  243.17   20.94
  -1 -12  -4  214.31   22.95
  -1 -12  -5   43.98   17.21
  -1 -12  -5   53.11   15.57
  -1 -12  -5   89.63   13.40
  -1 -12  -5   88.39   15.22
  -1 -12  -6   20.28    9.40
  -1 -12  -6    9.96    4.93
  -1 -12  -7  287.37   25.36
  -1 -12  -7  375.12   27.09
  -1 -12  -7  334.79   23.46
  -1 -12  -8  124.90   12.95
  -1 -12  -8  135.27   14.34
  -1 -12  -9   32.44    6.35
  -1 -12  -9   29.91    5.49
  -1 -12 -10   13.57    2.85
  -1 -12 -10    5.80    2.93
  -1 -13   7   20.09    5.02
  -1 -13   6  186.97   16.51
  -1 -13   5   12.23    4.77
  -1 -13   5   15.54    5.28
  -1 -13   4  199.85   18.15
  -1 -13   4  220.21   25.15
  -1 -13   3  166.22   16.91
  -1 -13   3  172.90   26.85
  -1 -13   2  326.28   23.53
  -1 -13   2  366.39   42.04
  -1 -13   2  392.03   29.69
  -1 -13   1    4.05    2.18
  -1 -13   1    9.37   10.14
  -1 -13   1    7.49    5.37
  -1 -13   0  247.14   40.05
  -1 -13   0  202.50   22.15
  -1 -13  -1   94.03   31.57
  -1 -13  -1   90.96   16.14
  -1 -13  -2   37.93    9.72
  -1 -13  -3  373.97   46.04
  -1 -13  -3  375.37   24.83
  -1 -13  -3  412.84   32.39
  -1 -13  -4  191.16   28.50
  -1 -13  -4  185.47   16.41
  -1 -13  -4  162.76   17.10
  -1 -13  -5   55.60   13.82
  -1 -13  -5   85.04   10.61
  -1 -13  -6    8.80    5.22
  -1 -13  -6    2.13    2.65
  -1 -13  -6    7.33    3.31
  -1 -13  -7  233.02   16.80
  -1 -13  -7  224.94   16.24
  -1 -13  -8   72.10    7.89
  -1 -13  -8   60.51    7.14
  -1 -13  -8   62.54    8.06
  -1 -14   4    8.23    2.99
   1  14  -3    0.63    0.71
  -1 -14   3    0.25    1.31
  -1 -14   2   55.29   12.41
  -1 -14   1   33.28   14.66
  -1 -14   1   35.59    8.32
  -1 -14   0   16.27   11.65
  -1 -14   0   12.52    5.84
  -1 -14  -1   28.79    5.96
  -1 -14  -1   37.93    8.97
  -1 -14  -2   72.89   11.27
  -1 -14  -2   60.62    8.05
  -1 -14  -3   33.23   11.94
  -1 -14  -3   22.31    5.58
  -1 -14  -3   27.45    5.48
  -1 -14  -4    1.56    4.38
  -1 -14  -4   -1.10    2.02
  -1 -14  -4    1.44    1.86
  -1 -14  -5    4.39    1.81
   2 -13  -2    1.59    4.60
   2 -13  -2    7.84    3.72
   2 -13  -1    1.05    6.53
   2 -13  -1    0.97    1.15
   2 -13  -1    3.41    2.97
   2 -13   0   36.82    5.45
   2 -13   0  136.16   14.28
   2 -13   1   83.83   18.60
   2 -13   1   72.66   11.01
   2 -13   1   71.56    7.82
   2 -13   2    9.59    6.87
   2 -13   2    5.95    3.76
   2 -13   3    9.24    4.30
   2 -13   3    8.77    4.56
   2 -13   4   43.32    9.58
   2 -13   4   50.67    7.61
   2 -12  -6   27.13    6.83
   2 -12  -5   87.89   14.25
   2 -12  -5   -0.43    1.71
   2 -12  -4   50.94   11.39
   2 -12  -3  239.93   28.16
   2 -12  -3  232.68   29.09
   2 -12  -3  218.51   18.24
   2 -12  -3  191.74   17.46
   2 -12  -2  362.17   38.95
   2 -12  -2  356.73   41.13
   2 -12  -2  294.43   18.41
   2 -12  -2  326.84   24.83
   2 -12  -1   -3.45    8.04
   2 -12  -1   14.84    8.59
   2 -12  -1   10.00    2.79
   2 -12  -1    8.34    4.07
   2 -12   0    6.69    7.70
   2 -12   0   -1.64    3.59
   2 -12   1   13.39    6.85
   2 -12   1    6.80    3.98
   2 -12   2   -2.91    4.77
   2 -12   3  425.13   46.52
   2 -12   3  407.91   30.11
   2 -12   4   45.95   13.05
   2 -12   4   51.20   10.35
   2 -12   5  195.62   23.62
   2 -12   5  220.56   18.64
   2 -12   6   14.76    3.78
   2 -12   6   22.53    7.85
   2 -12   6   28.43    6.23
   2 -12   7   32.92    6.10
   2 -11  -8    9.42    2.82
   2 -11  -7    2.00    3.25
   2 -11  -6  160.95   20.19
   2 -11  -6  166.61   16.06
   2 -11  -5   47.79   13.44
   2 -11  -5   30.39    8.39
   2 -11  -5   40.22    9.78
   2 -11  -4   96.71   19.26
   2 -11  -4  123.69   17.58
   2 -11  -4   89.25   10.20
   2 -11  -3  489.19   50.26
   2 -11  -3  573.96   43.59
   2 -11  -3  345.35   27.28
   2 -11  -3  335.08   21.92
   2 -11  -2  669.01   60.30
   2 -11  -2  587.72   36.96
   2 -11  -2  607.01   31.92
   2 -11  -1    4.16   10.15
   2 -11  -1    6.34    4.71
   2 -11  -1    3.58    5.30
   2 -11   0   58.35   17.19
   2 -11   0   43.82    9.34
   2 -11   1  297.46   33.56
   2 -11   1  282.85   25.47
   2 -11   2   26.36    5.77
   2 -11   2   28.99    6.62
   2 -11   3  438.90   33.66
   2 -11   3  404.05   29.28
   2 -11   3  469.56   37.86
   2 -11   4  212.84   22.29
   2 -11   4  217.03   24.39
   2 -11   5  319.62   28.33
   2 -11   5  310.65   29.97
   2 -11   6   13.28    7.03
   2 -11   6    0.68    4.33
   2 -11   6    4.42    4.18
   2 -11   7  186.96   19.14
   2 -11   7  162.63   18.34
   2 -11   7  174.19   20.23
  -2  11  -8   22.32    4.58
   2 -11   8   22.35    6.74
   2 -11   8   20.66    5.88
   2 -11   9   38.27    7.56
   2 -10  -9   22.58    4.45
   2 -10  -8   26.25    6.46
   2 -10  -8   27.80    7.09
   2 -10  -7    9.12    5.42
   2 -10  -7   13.97    5.95
   2 -10  -6   13.99    4.77
   2 -10  -6   16.75    6.13
   2 -10  -6   16.40    9.17
   2 -10  -6    8.29    3.70
   2 -10  -6    8.70    3.45
   2 -10  -5  221.57   31.17
   2 -10  -5  138.45   14.04
   2 -10  -5  132.18   16.49
   2 -10  -5  188.90   23.38
   2 -10  -4  144.53   14.84
   2 -10  -4  206.16   27.52
   2 -10  -3   84.36   23.71
  -2  10   3  188.97   40.79
   2 -10  -3  121.93   42.52
   2 -10  -3  142.40   28.68
   2 -10  -3  139.58   14.64
   2 -10  -3  164.10   28.12
   2 -10  -2  332.58   48.73
  -2  10   2  463.43   69.03
   2 -10  -2  413.55   51.78
   2 -10  -2  448.81  106.79
   2 -10  -2  583.97   57.17
   2 -10  -2  409.43   30.96
   2 -10  -1    5.31   16.27
   2 -10  -1  -10.63   12.90
  -2  10   1    6.51    8.32
   2 -10  -1   25.81   28.49
   2 -10  -1    1.64    5.57
   2 -10  -1   -3.78    5.38
   2 -10  -1   11.41   14.35
   2 -10   0   59.18   19.83
  -2  10   0   76.21   33.11
   2 -10   0   72.80   20.69
   2 -10   0   39.31    9.59
   2 -10   0   18.44   12.40
   2 -10   1   26.23    6.26
   2 -10   1   21.31   18.05
   2 -10   1   11.18   11.94
  -2  10  -1   34.91   20.11
   2 -10   1   51.69   18.06
   2 -10   2    7.02    6.32
   2 -10   2   -3.21    3.38
   2 -10   2  -12.64   21.75
  -2  10  -2  -10.36   10.72
   2 -10   2  -15.71   32.26
   2 -10   2    1.15    8.79
   2 -10   3  226.14   25.36
   2 -10   3  286.83   47.06
   2 -10   3  267.30   34.59
  -2  10  -3  185.42   38.28
   2 -10   3  266.65   29.88
   2 -10   4   75.46   15.14
   2 -10   4   56.93   19.14
  -2  10  -4   69.30   21.34
   2 -10   4   90.68   16.57
   2 -10   4   83.72   35.87
   2 -10   5  269.49   35.85
   2 -10   5  307.07   31.95
  -2  10  -5  279.10   21.37
   2 -10   6  129.66   19.78
   2 -10   6  125.26   22.28
  -2  10  -6  141.97   14.52
   2 -10   7   57.57   12.31
   2 -10   7   47.89   13.55
   2 -10   7   62.69   14.09
  -2  10  -7   51.00    8.69
  -2  10  -8   10.51    3.31
   2 -10   8   10.61    3.84
  -2  10  -9   27.81    5.34
   2 -10   9   27.20    7.28
  -2  10 -10   19.77    4.24
   2 -10  10   25.08    5.60
  -2  10 -11  145.33    9.64
   2 -10  11  140.72   12.06
   2 -10  11  139.29   11.58
   2  -9 -11   -0.36    0.78
   2  -9 -11    1.71    1.71
   2  -9 -10   41.58    5.85
   2  -9  -9   -1.28    3.49
   2  -9  -9    2.04    2.62
   2  -9  -9    0.37    1.50
   2  -9  -8   46.85    8.55
   2  -9  -8   38.56    8.71
   2  -9  -8   45.05    9.94
   2  -9  -7  185.95   17.87
   2  -9  -7  230.70   26.74
   2  -9  -7  223.22   23.08
   2  -9  -7  170.90   15.14
   2  -9  -6   73.76   14.72
   2  -9  -6   89.58   18.99
   2  -9  -6   65.00    9.85
   2  -9  -6   57.43   10.52
   2  -9  -5  366.67   60.35
   2  -9  -5  493.93   49.96
   2  -9  -5  397.20   38.26
   2  -9  -5  346.63   24.64
   2  -9  -5  338.61   28.11
   2  -9  -4    9.02    6.86
   2  -9  -4    3.97    9.27
  -2   9   4   15.81   14.97
   2  -9  -4   20.33    5.86
   2  -9  -4   21.57   14.63
   2  -9  -4   18.93    7.12
   2  -9  -4   12.78    6.79
   2  -9  -3   72.33   19.07
   2  -9  -3   45.83   16.67
  -2   9   3   79.40   28.81
   2  -9  -3   99.97   46.85
   2  -9  -3   62.65   14.58
   2  -9  -2   12.40   22.37
   2  -9  -2    7.43    8.37
   2  -9  -2    7.90   51.57
  -2   9   2   -6.50   11.80
   2  -9  -2   17.65   13.73
   2  -9  -2    0.61    4.56
   2  -9  -2   15.22   18.73
   2  -9  -1   -3.43   13.89
   2  -9  -1   11.48    4.14
  -2   9   1   -6.90   15.17
   2  -9  -1  -10.74   14.29
   2  -9  -1    4.50   16.28
   2  -9  -1    2.95    4.97
   2  -9   0  709.35   70.01
  -2   9   0  543.43   79.22
   2  -9   0  734.67   65.98
   2  -9   1  430.53   33.69
   2  -9   1  564.48   60.60
   2  -9   1  528.66   52.00
  -2   9  -1  436.89   69.53
   2  -9   2  150.33   41.52
   2  -9   2   81.87   16.40
   2  -9   2  132.77   28.27
   2  -9   2   85.15   57.73
   2  -9   2  134.19   24.48
   2  -9   3   71.99   30.53
   2  -9   3   40.23   12.42
   2  -9   3   87.20   49.30
  -2   9  -3   29.48   16.18
   2  -9   3   31.93   11.57
   2  -9   4  285.78   44.99
   2  -9   4  316.59   38.08
   2  -9   4  336.86   81.03
   2  -9   4  253.36   28.37
  -2   9  -4  165.45   35.47
   2  -9   5   -1.53   10.61
   2  -9   5   21.40   14.51
   2  -9   5   -1.95    7.88
  -2   9  -5   13.11   11.07
   2  -9   5  -18.68   24.35
   2  -9   6  200.10   31.78
   2  -9   6  193.42   28.50
   2  -9   6  208.62   38.10
   2  -9   6  232.94   54.59
  -2   9  -6  156.94   29.69
   2  -9   7   25.50    7.99
   2  -9   7   26.08    9.90
   2  -9   7   31.47   16.15
   2  -9   8  355.42   29.37
   2  -9   9    7.58    4.33
   2  -9   9    5.57    4.32
   2  -9  10    4.69    4.79
   2  -9  10    0.95    2.95
   2  -9  10   -2.56    3.64
  -2   9 -11    2.06    1.98
   2  -9  11   -0.89    2.04
   2  -9  11    3.43    2.70
   2  -9  11    0.75    2.64
  -2   9 -12   53.77    6.27
   2  -9  12   70.97    7.97
   2  -9  12   63.87    7.64
   2  -9  12   52.49    7.61
   2  -8 -12   56.35    6.14
   2  -8 -11   25.13    5.06
   2  -8 -11   24.56    6.34
   2  -8 -10    1.51    2.78
   2  -8 -10    3.88    1.73
   2  -8 -10    6.90    4.36
   2  -8  -9   35.06    7.44
   2  -8  -9   28.75   10.16
   2  -8  -9   20.31    6.33
   2  -8  -8  108.84   14.44
   2  -8  -8  115.09   17.29
   2  -8  -8  119.90   16.96
   2  -8  -8  112.28   19.59
   2  -8  -7  744.87   41.83
   2  -8  -7  819.33   55.71
   2  -8  -7  761.92   48.60
   2  -8  -7  670.49   35.93
   2  -8  -7  595.95   47.58
   2  -8  -7  660.02   40.78
   2  -8  -6  164.47   18.14
   2  -8  -6  111.35   19.77
   2  -8  -6  146.98   21.45
   2  -8  -6  142.49   17.69
   2  -8  -6  175.59   28.40
   2  -8  -6  149.17   15.77
   2  -8  -5  472.67   54.79
  -2   8   5  567.95   66.69
   2  -8  -5  493.20   74.26
   2  -8  -5  542.24   47.56
   2  -8  -5  486.61   41.01
   2  -8  -5  552.48   35.89
   2  -8  -5  584.63   33.13
   2  -8  -4   24.63   13.56
   2  -8  -4   17.12    9.43
  -2   8   4   17.71   16.30
   2  -8  -4   34.79   35.87
   2  -8  -4   13.57    5.05
   2  -8  -4    5.23    7.58
   2  -8  -4   19.27    6.23
   2  -8  -3  148.07   33.05
   2  -8  -3  139.97   28.94
   2  -8  -3  155.01   61.26
  -2   8   3  177.77   43.67
   2  -8  -3  115.10   22.77
   2  -8  -2    5.06    6.11
   2  -8  -2   32.13   23.05
  -2   8   2    6.41   20.20
   2  -8  -2   18.11   38.26
   2  -8  -2   29.91   16.85
  -2   8   1    3.47   14.09
   2  -8  -1    3.17    7.79
   2  -8  -1   -8.32   22.39
  -2   8   0 1171.80  123.39
   2  -8   0 1285.07   86.71
   2  -8   1  929.17   57.36
   2  -8   1 1591.76  164.96
   2  -8   1  984.10   75.66
   2  -8   1 1645.53  282.14
  -2   8  -1  829.00  100.70
   2  -8   2  427.84   76.23
   2  -8   2  482.68  137.78
   2  -8   2  299.30   36.01
   2  -8   3   92.79   27.64
  -2   8  -3   22.94   19.46
   2  -8   3   56.71   51.39
   2  -8   3   47.68   12.40
   2  -8   4  735.79   77.83
   2  -8   4  783.34   68.96
  -2   8  -4  648.46   73.98
   2  -8   4  940.17  144.00
   2  -8   4  775.48   52.11
   2  -8   5   53.14   20.46
   2  -8   5   39.01   14.67
  -2   8  -5   31.20   14.52
   2  -8   5   30.56   16.99
   2  -8   6   85.21   20.14
   2  -8   6  123.81   39.41
  -2   8  -6   56.70   19.23
   2  -8   6   89.11   24.87
  -2   8  -6  101.29   12.79
  -2   8  -7  181.61   31.49
   2  -8   7  232.97   41.05
  -2   8  -7  220.20   19.83
   2  -8   8 1056.35   68.74
   2  -8   8 1102.71   98.38
  -2   8  -8 1047.37   49.10
   2  -8   9   47.89   10.99
   2  -8   9   63.32   14.23
   2  -8   9   40.06   17.02
  -2   8  -9   64.37   10.06
  -2   8 -10   16.85    5.64
   2  -8  10   12.35    6.09
   2  -8  10   15.24    5.48
   2  -8  11   29.68    7.97
   2  -8  11   32.01    9.20
  -2   8 -12  211.52   14.81
   2  -8  12  221.56   19.01
   2  -8  12  223.04   17.72
   2  -8  13   46.75    6.93
   2  -8  13   44.76    6.23
   2  -8  13   40.25    6.28
   2  -7 -13  209.50   14.73
   2  -7 -13  232.19   12.14
   2  -7 -12   89.20    9.27
   2  -7 -12   78.47    8.21
   2  -7 -12   85.75   10.95
   2  -7 -11    5.10    2.50
   2  -7 -11   11.86    5.38
   2  -7 -11    6.65    2.42
   2  -7 -10   44.40    8.26
   2  -7 -10   40.78   11.06
   2  -7 -10   35.10    7.59
   2  -7 -10   35.94    6.58
   2  -7  -9    6.12    5.52
   2  -7  -9    4.82    2.46
   2  -7  -9    7.19    5.54
   2  -7  -9    5.42    3.66
   2  -7  -9    8.93    5.13
   2  -7  -8   97.34   21.20
   2  -7  -8  115.45   15.92
   2  -7  -8  104.15   18.12
   2  -7  -8   87.83   17.48
   2  -7  -8  102.58   12.45
   2  -7  -7  720.22   41.88
   2  -7  -7  619.73   48.08
   2  -7  -7  628.17   45.49
   2  -7  -7  585.91   38.62
   2  -7  -7  674.36   36.83
   2  -7  -6   74.89   13.42
   2  -7  -6   58.91   19.11
   2  -7  -6   45.13   16.25
   2  -7  -6   72.78   11.56
   2  -7  -6   71.13   16.49
   2  -7  -6   66.70   11.49
   2  -7  -6   89.12   12.12
   2  -7  -6   55.32   12.16
   2  -7  -5  281.21   24.12
   2  -7  -5  258.43   32.01
  -2   7   5  317.60   48.01
   2  -7  -5  267.99   53.91
   2  -7  -5  272.99   23.59
   2  -7  -5  302.15   22.51
   2  -7  -5  223.69   30.02
   2  -7  -5  240.88   27.62
   2  -7  -4   21.92   14.93
  -2   7   4   29.38   17.29
   2  -7  -4   49.85   24.99
   2  -7  -4   21.05   10.16
   2  -7  -4   18.60    5.37
   2  -7  -4   28.72    6.40
   2  -7  -4   29.07    7.21
   2  -7  -3   18.34   12.15
   2  -7  -3   19.26   15.66
  -2   7   3   20.93   17.73
   2  -7  -3   -6.55   18.41
   2  -7  -3    8.58    3.09
   2  -7  -3    6.55    6.78
   2  -7  -2  164.32   45.10
   2  -7  -2  171.96   28.37
  -2   7   2  183.79   44.36
   2  -7  -2  155.91   91.68
   2  -7  -1  -32.49   29.32
  -2   7   1   -3.33   21.09
  -2   7   0  747.12   96.04
   2  -7   1  519.60   94.55
  -2   7  -1  205.43   52.01
   2  -7   1  446.52  165.46
   2  -7   2   62.43   33.06
   2  -7   2   90.98   77.67
   2  -7   3  236.76   55.08
   2  -7   3  211.63   32.97
   2  -7   3  247.26   29.24
  -2   7  -3  181.43   40.79
  -2   7  -4   49.44    7.61
   2  -7   4   32.97    9.48
  -2   7  -4   64.13   24.38
   2  -7   4   36.13   13.62
   2  -7   4   63.75   14.16
  -2   7  -5   28.88   15.10
   2  -7   5   18.64   12.85
   2  -7   5   -5.29   15.67
   2  -7   5   41.82   16.57
  -2   7  -5   19.69    5.87
   2  -7   6   13.98   10.18
  -2   7  -6    5.08    5.52
   2  -7   6  -12.52   19.38
   2  -7   6    4.27   12.02
  -2   7  -6   11.66    6.07
   2  -7   7   39.77   13.08
  -2   7  -7   45.95   14.65
   2  -7   7   58.84   29.33
   2  -7   7   66.64   23.46
  -2   7  -7   43.18    8.47
   2  -7   8  650.34   72.15
  -2   7  -8  624.33   37.20
   2  -7   9   61.36   16.68
   2  -7   9   74.54   25.33
  -2   7  -9   65.94   10.57
   2  -7  10   -3.78    7.32
   2  -7  10    8.94    5.76
   2  -7  10    2.61    6.79
  -2   7 -10    1.76    1.56
  -2   7 -11    3.04    1.36
   2  -7  11    1.21    2.97
   2  -7  11    4.60    5.43
  -2   7 -12  129.29   11.91
   2  -7  12  122.16   14.70
   2  -7  12  122.51   15.95
  -2   7 -13   41.83    6.10
   2  -7  13   39.60    6.68
   2  -7  13   39.96    7.68
  -2   7 -14   28.88    4.46
   2  -7  14   27.52    4.85
   2  -6 -13   14.67    3.25
   2  -6 -13   18.82    4.62
   2  -6 -13   16.98    3.43
   2  -6 -12   51.17    7.78
   2  -6 -12   50.46    7.41
   2  -6 -12   50.48    9.24
   2  -6 -11   34.80    7.83
   2  -6 -11   32.91    9.29
   2  -6 -11   39.94    6.60
   2  -6 -10  529.72   32.44
   2  -6 -10  496.66   29.53
   2  -6 -10  506.57   32.25
   2  -6 -10  448.23   37.66
   2  -6  -9   31.80   12.66
   2  -6  -9   52.73    9.69
   2  -6  -9   30.06    9.87
   2  -6  -9   36.31    9.59
   2  -6  -9   34.57    6.65
   2  -6  -8  149.08   18.58
   2  -6  -8  137.71   26.07
   2  -6  -8  121.49   16.48
   2  -6  -8  122.01   18.54
   2  -6  -8  133.95   14.58
   2  -6  -8  118.44   19.35
   2  -6  -7   11.28    3.98
   2  -6  -7   22.83    7.94
   2  -6  -7   13.15    4.27
   2  -6  -7   20.88    7.00
   2  -6  -7   19.24    7.69
   2  -6  -6   72.71   12.62
   2  -6  -6   63.78   19.27
   2  -6  -6   61.82   18.34
   2  -6  -6   61.66   11.15
   2  -6  -6   72.39   15.36
   2  -6  -6   88.18   12.09
   2  -6  -6   85.88   13.25
   2  -6  -5   52.99   10.62
   2  -6  -5   49.30   13.31
   2  -6  -5   57.21   17.98
   2  -6  -5   61.47   27.63
  -2   6   5   72.48   23.52
   2  -6  -5   51.93    8.78
   2  -6  -5   48.89    8.10
   2  -6  -5   25.32    7.61
   2  -6  -5   44.36   11.05
   2  -6  -4   30.58    7.19
   2  -6  -4   41.81   15.63
  -2   6   4   44.47   16.43
   2  -6  -4   36.11   21.15
   2  -6  -4   40.54    8.28
   2  -6  -4   45.07    7.53
   2  -6  -4   31.27    8.01
   2  -6  -3  271.67   44.02
  -2   6   3  362.17   51.88
   2  -6  -3  405.67  102.93
   2  -6  -3  348.92   28.48
   2  -6  -3  352.42   24.29
   2  -6  -2 1110.81  115.65
   2  -6  -2 1144.35  207.86
  -2   6   2 1135.87  104.51
  -2   6   1    6.29   15.64
   2  -6  -1   81.90   96.70
  -2   6   0   51.39   24.48
   2  -6   1  289.02  119.19
  -2   6  -1  188.82   46.22
   2  -6   2    2.38    5.17
   2  -6   2   -0.68    3.64
   2  -6   3  841.36   94.89
   2  -6   3  824.51   62.27
   2  -6   3  829.87   49.44
  -2   6  -3  931.50   96.21
  -2   6  -3  890.05   38.12
   2  -6   4  326.89   37.79
   2  -6   4  341.33   30.05
  -2   6  -4  311.23   48.40
   2  -6   4  353.10   93.99
   2  -6   4  354.31   54.42
  -2   6  -4  359.94   23.50
   2  -6   5  523.84   59.15
   2  -6   5  460.89   47.50
   2  -6   5  481.83   38.07
  -2   6  -5  476.24   55.16
   2  -6   5  500.72   97.22
  -2   6  -5  464.73   29.85
  -2   6  -6    6.36    6.63
   2  -6   6    7.84   11.39
  -2   6  -6   11.42    4.31
   2  -6   6    1.45    7.96
  -2   6  -7  319.25   31.81
  -2   6  -7  303.39   39.52
   2  -6   7  415.91   73.07
   2  -6   7  364.87   50.73
  -2   6  -7  322.97   25.85
  -2   6  -8   17.06    8.23
  -2   6  -8   21.92    5.99
  -2   6  -9   22.47    7.12
  -2   6  -9   29.71    7.74
   2  -6  10  112.35   20.50
  -2   6 -10   87.12   15.98
  -2   6 -10   93.95   13.22
  -2   6 -11  332.25   22.96
   2  -6  11  341.72   34.45
   2  -6  11  355.98   30.23
  -2   6 -12    1.35    2.78
   2  -6  12    5.00    4.01
   2  -6  12   10.58    7.90
  -2   6 -13   70.70    8.29
   2  -6  13   62.74    9.15
   2  -6  13   73.93   11.08
  -2   6 -14   17.90    4.02
   2  -6  14   18.75    4.31
   2  -6  14   14.14    3.75
  -2   6 -15   71.00    6.58
   2  -6  15   76.35    8.09
   2  -5 -14  116.31   10.76
   2  -5 -13    2.93    1.91
   2  -5 -13    1.94    1.60
   2  -5 -13    2.40    2.33
   2  -5 -12   41.36    7.41
   2  -5 -12   40.81    9.08
   2  -5 -12   50.78    7.60
   2  -5 -11   83.97   11.90
   2  -5 -11   79.01   13.46
   2  -5 -11   89.91    9.92
   2  -5 -10 1152.85   74.02
   2  -5 -10 1317.75   56.89
   2  -5 -10 1234.72   53.40
   2  -5 -10 1258.23   57.97
   2  -5 -10 1263.97   67.76
   2  -5  -9  207.73   31.58
   2  -5  -9  243.67   22.10
   2  -5  -9  225.74   23.55
   2  -5  -9  237.36   23.59
   2  -5  -9  188.81   22.28
   2  -5  -9  234.22   27.95
   2  -5  -8  104.65   14.48
   2  -5  -8   53.31   16.42
   2  -5  -8   76.24   13.30
   2  -5  -8   66.49   13.09
   2  -5  -8   71.92   14.18
   2  -5  -8   97.91   12.26
   2  -5  -8   69.58   14.91
   2  -5  -7   66.48   11.57
   2  -5  -7   38.07   10.06
   2  -5  -7   38.30   11.89
   2  -5  -7   47.42    9.05
   2  -5  -7   47.91   12.43
   2  -5  -7   41.19   11.90
   2  -5  -7   42.08    9.11
   2  -5  -6  111.94   17.42
   2  -5  -6  169.71   18.84
   2  -5  -6  136.75   27.05
   2  -5  -6  109.56   27.14
   2  -5  -6  155.47   17.98
   2  -5  -6  143.48   20.10
   2  -5  -6  163.30   16.27
   2  -5  -6  149.84   16.87
   2  -5  -5  188.66   21.31
   2  -5  -5  206.10   19.94
   2  -5  -5  181.84   29.19
   2  -5  -5  151.93   38.29
  -2   5   5  179.09   30.53
   2  -5  -5  200.43   18.21
   2  -5  -5  196.35   22.96
   2  -5  -4  438.28   32.36
   2  -5  -4  517.93   47.79
   2  -5  -4  392.44   75.72
  -2   5   4  458.78   49.94
   2  -5  -3 1143.44   68.81
   2  -5  -3  982.86  143.98
  -2   5   3 1032.17   83.96
   2  -5  -2 1972.72  253.64
  -2   5   2 1713.92  121.97
   2  -5  -1  -24.24   35.63
  -2   5   1   -8.39   11.82
  -2   5   0  -13.57   11.92
   2  -5   1  335.23   34.75
   2  -5   1  303.53   24.85
   2  -5   2   62.46   14.61
   2  -5   2   46.36    9.59
  -2   5  -3 1088.99   44.26
   2  -5   3 1148.68   67.98
   2  -5   3 1207.65   55.71
  -2   5  -3 1253.78  106.58
  -2   5  -4  764.62   36.85
   2  -5   4  748.49   54.88
  -2   5  -4  812.50   75.89
   2  -5   4  910.95  149.05
  -2   5  -5 1248.53   54.52
  -2   5  -5 1286.20   90.56
  -2   5  -6  242.32   21.57
   2  -5   6  265.17   62.21
  -2   5  -6  239.62   34.92
  -2   5  -7  233.54   21.78
  -2   5  -7  254.84   33.58
  -2   5  -7  252.28   28.26
   2  -5   7  202.49   50.50
  -2   5  -8   16.75    6.13
  -2   5  -8   21.48    8.28
  -2   5  -9  251.37   23.72
  -2   5  -9  181.83   24.71
  -2   5  -9  208.35   16.91
  -2   5 -10  166.96   17.09
  -2   5 -10  142.93   21.76
  -2   5 -10  155.05   13.83
   2  -5  11  787.76   56.28
  -2   5 -11  754.86   37.54
  -2   5 -11  712.21   50.72
  -2   5 -11  684.42   32.01
  -2   5 -12   84.68   10.89
   2  -5  12  107.13   15.80
   2  -5  12   84.34   14.44
   2  -5  13  168.22   18.13
   2  -5  13  153.72   15.40
  -2   5 -13  129.65   11.13
  -2   5 -14   87.19    9.25
  -2   5 -14   73.96    8.17
   2  -5  14   88.00   10.28
  -2   5 -14   69.88    7.09
  -2   5 -15  240.52   14.19
   2  -4 -14   40.16    6.59
   2  -4 -13    9.38    4.01
   2  -4 -13    2.32    1.98
   2  -4 -12   25.13    6.81
   2  -4 -12   17.31    5.97
   2  -4 -12   21.34    5.33
   2  -4 -11   49.17   12.07
   2  -4 -11   37.63    6.11
   2  -4 -11   41.05    8.30
   2  -4 -11   51.41    9.81
   2  -4 -11   50.62    9.87
   2  -4 -11   48.07   11.99
   2  -4 -10  663.08   32.43
   2  -4 -10  723.72   55.94
   2  -4 -10  749.72   42.54
   2  -4 -10  707.89   38.71
   2  -4 -10  721.41   40.71
   2  -4 -10  659.91   42.06
   2  -4 -10  725.77   48.04
   2  -4 -10  748.93   37.01
   2  -4  -9  182.83   29.68
   2  -4  -9  215.44   18.17
   2  -4  -9  189.94   16.47
   2  -4  -9  221.32   22.62
   2  -4  -9  212.91   20.60
   2  -4  -9  180.35   22.46
   2  -4  -9  238.12   26.93
   2  -4  -9  188.74   21.55
   2  -4  -9  216.41   20.15
   2  -4  -8   11.78    4.61
   2  -4  -8    5.42    4.47
   2  -4  -8   13.98    6.18
   2  -4  -8    8.57    4.49
   2  -4  -8    4.84    2.85
   2  -4  -8   14.36    6.47
   2  -4  -8   10.18    5.24
   2  -4  -8   10.43    7.26
   2  -4  -8    1.79    5.57
   2  -4  -7   11.41    2.02
   2  -4  -7    3.61    5.20
   2  -4  -7   10.50    4.90
   2  -4  -7    8.20    4.86
   2  -4  -7    5.66    4.50
   2  -4  -7   10.40    7.65
   2  -4  -7    9.44    6.48
   2  -4  -6   79.95   12.43
   2  -4  -6   61.94   17.69
   2  -4  -6   69.50   21.94
   2  -4  -6   73.50   12.80
   2  -4  -6   80.35   13.50
   2  -4  -6   40.56   11.50
   2  -4  -6   70.36   14.33
   2  -4  -6   77.12   12.08
   2  -4  -5  741.00   56.99
  -2   4   5  759.30   58.02
   2  -4  -4  266.92   31.72
   2  -4  -4  181.79   49.86
  -2   4   4  241.06   32.17
   2  -4  -3  716.95   48.44
  -2   4   3  567.27   56.36
  -2   4   2  826.21   73.34
  -2   4   1   23.02   10.17
  -2   4   0  178.73   49.25
   2  -4   1    6.97    6.57
   2  -4   1    6.41    3.55
  -2   4  -1   13.90   19.28
   2  -4   2    2.97    2.20
   2  -4   2    7.65    6.33
  -2   4  -3  906.75   85.48
   2  -4   3  771.69   49.42
  -2   4  -4   58.47    8.71
  -2   4  -4   56.16   18.38
  -2   4  -5 1184.65   52.40
  -2   4  -5 1184.74   82.25
   2  -4   5 1114.91  141.55
  -2   4  -6  347.36   26.67
  -2   4  -6  360.11   40.24
   2  -4   6  300.17   64.04
  -2   4  -7    4.71    2.59
  -2   4  -7    5.36    3.05
  -2   4  -7    8.36    6.30
  -2   4  -8   20.98    7.46
  -2   4  -8    9.42    3.99
  -2   4  -9  226.62   21.06
  -2   4  -9  224.79   27.93
  -2   4  -9  226.26   18.07
  -2   4 -10   59.75    9.91
  -2   4 -10   42.77   12.31
  -2   4 -10   50.06    8.51
  -2   4 -11  522.33   43.81
  -2   4 -11  473.11   26.88
   2  -4  12    8.36    6.61
   2  -4  12    5.29    6.47
  -2   4 -12    2.17    1.40
  -2   4 -13  158.38   14.07
   2  -4  13  199.62   20.25
  -2   4 -13  166.22   14.10
  -2   4 -14   19.34    4.45
  -2   4 -14   33.27    5.81
  -2   4 -14   24.90    4.53
  -2   4 -15   57.67    6.35
  -2   4 -15   55.02    6.30
  -2   4 -16   23.97    3.21
   2  -3 -15  152.08   10.04
   2  -3 -15  153.52   11.90
   2  -3 -14   27.21    4.87
   2  -3 -14   21.45    4.74
   2  -3 -13  402.77   23.60
   2  -3 -13  378.73   26.28
   2  -3 -12   76.65    8.77
   2  -3 -12   95.73   12.14
   2  -3 -12   85.83   10.27
   2  -3 -12   75.04   10.91
   2  -3 -12  108.67   14.79
   2  -3 -11    5.34    3.06
   2  -3 -11    2.49    3.25
   2  -3 -11    3.32    3.31
   2  -3 -11   -4.01    4.99
   2  -3 -10   26.66    6.38
   2  -3 -10   35.49   12.24
   2  -3 -10   30.41    6.95
   2  -3 -10   34.07    8.60
   2  -3 -10   44.20    9.85
   2  -3 -10   37.16    8.82
   2  -3 -10   33.02    9.93
   2  -3  -9   -0.46    3.09
   2  -3  -9    1.49    3.44
   2  -3  -9    4.89    4.36
   2  -3  -9    3.64    4.06
   2  -3  -9    3.60    2.05
   2  -3  -9    2.24    4.21
   2  -3  -9    4.99    4.56
   2  -3  -9    6.09    3.49
   2  -3  -9    3.59    6.00
   2  -3  -9    9.31    6.95
   2  -3  -8   42.83    8.36
   2  -3  -8   34.96    8.32
   2  -3  -8   45.85    9.35
   2  -3  -8   38.93   11.21
   2  -3  -8   30.29    7.13
   2  -3  -8   45.57    9.15
   2  -3  -8   29.03    9.31
   2  -3  -8   30.60   10.02
   2  -3  -8   35.59   11.35
   2  -3  -7  711.03   38.73
   2  -3  -7  629.09   39.65
   2  -3  -7  426.40   32.98
   2  -3  -7  615.77   40.31
   2  -3  -7  499.21   38.78
   2  -3  -7  458.13   36.40
   2  -3  -7  587.15   41.60
   2  -3  -6  181.02   28.05
   2  -3  -6  236.45   22.35
   2  -3  -6  169.00   29.76
   2  -3  -5 1281.26   73.13
  -2   3   5 1196.67   68.13
   2  -3  -4   -0.95    4.34
  -2   3   4    1.07    5.57
  -2   3   3  156.13   25.16
  -2   3   2   35.04   12.61
  -2   3   1   16.87    8.05
  -2   3   0 1757.56  128.56
  -2   3  -1 1229.05  102.43
   2  -3   1 1247.10   46.99
   2  -3   1 1152.73   57.54
   2  -3   2  152.06   12.87
   2  -3   2  152.52   18.09
  -2   3  -3  330.29   45.40
  -2   3  -4  650.06   59.25
  -2   3  -5   11.98    4.02
  -2   3  -5   19.40    9.50
  -2   3  -6  336.46   28.04
   2  -3   6  312.31   61.56
  -2   3  -6  448.60   37.52
  -2   3  -6  440.05   40.21
  -2   3  -7  226.00   23.90
   2  -3   7  213.59   43.89
  -2   3  -7  204.07   24.78
  -2   3  -7  202.93   25.45
  -2   3  -8  919.73   49.49
  -2   3  -8  925.81   59.29
  -2   3  -9    4.99    3.55
  -2   3  -9   -2.03    6.93
  -2   3  -9    1.66    2.02
  -2   3 -10   -3.16    6.59
  -2   3 -10    3.40    3.54
   2  -3  11    9.47    6.56
  -2   3 -11    6.03    3.69
  -2   3 -11   15.38    7.35
  -2   3 -11    1.94    1.75
  -2   3 -12  240.63   18.82
   2  -3  12  276.83   28.03
  -2   3 -12  217.27   17.03
  -2   3 -13  189.86   15.73
  -2   3 -14   38.61    6.35
  -2   3 -14   48.73    7.46
  -2   3 -14   47.52    7.12
  -2   3 -15   76.16    8.21
  -2   3 -15   68.04    7.89
  -2   3 -16  160.87   10.77
   2  -2 -15  168.67   10.89
   2  -2 -15  170.57   13.15
   2  -2 -14  149.79   11.95
   2  -2 -14  127.92   11.96
   2  -2 -14  154.09   14.45
   2  -2 -13  640.45   29.36
   2  -2 -13  685.35   32.62
   2  -2 -13  692.89   32.90
   2  -2 -13  729.60   38.10
   2  -2 -12  189.54   15.09
   2  -2 -12  216.84   17.89
   2  -2 -12  197.51   17.60
   2  -2 -12  209.95   20.67
   2  -2 -11   87.53   10.82
   2  -2 -11   82.06   12.35
   2  -2 -11   82.06   11.38
   2  -2 -11  108.81   15.24
   2  -2 -11   94.90   11.48
   2  -2 -10   45.29    7.83
   2  -2 -10   52.98    8.75
   2  -2 -10   59.91   12.07
   2  -2 -10   43.79   10.55
   2  -2 -10   39.36    8.31
   2  -2 -10   51.94   10.94
   2  -2 -10   44.71   10.02
   2  -2  -9  128.69   15.31
   2  -2  -9  103.76   18.46
   2  -2  -9  133.92   15.10
   2  -2  -9  123.90   15.75
   2  -2  -9  115.89   16.72
   2  -2  -9  116.48   15.95
   2  -2  -9  128.86   15.33
   2  -2  -8  378.65   28.94
   2  -2  -8  339.04   35.57
   2  -2  -8  412.13   29.80
   2  -2  -8  422.43   30.39
   2  -2  -8  400.67   32.02
   2  -2  -8  381.30   29.12
   2  -2  -7 1731.18   71.34
   2  -2  -7 1912.50   71.73
   2  -2  -7 1296.80   65.53
   2  -2  -7 1456.05   70.10
   2  -2  -7 1707.05   74.64
   2  -2  -7 1833.40   84.18
   2  -2  -6  616.28   49.73
   2  -2  -6  680.72   39.31
   2  -2  -6  535.46   44.47
   2  -2  -5  954.03   59.13
  -2   2   5  983.63   53.72
   2  -2  -5  957.47   45.64
   2  -2  -4   26.54   10.20
  -2   2   4   26.65    9.86
  -2   2   3  217.56   26.81
  -2   2   2  117.32   21.27
  -2   2   1  206.71   33.82
  -2   2   0 1405.92   91.01
   2  -2   1  891.05   78.23
   2  -2   1  708.78   37.82
  -2   2  -1  590.45   60.82
   2  -2   1  796.31   29.44
   2  -2   2  514.91   55.78
   2  -2   2  443.53   29.03
   2  -2   3  890.95   71.98
  -2   2  -3  906.50   66.65
   2  -2   4  388.21   41.94
  -2   2  -4  520.05   45.40
  -2   2  -5   38.81   11.54
  -2   2  -5   61.61   12.49
  -2   2  -6  285.97   28.44
  -2   2  -6  311.92   30.09
  -2   2  -7  316.82   27.16
   2  -2   7  297.54   47.74
  -2   2  -7  404.98   35.73
  -2   2  -8 3281.07  132.44
  -2   2  -9  164.98   16.79
  -2   2  -9  171.85   17.54
  -2   2  -9  187.24   26.30
  -2   2  -9  171.95   15.67
  -2   2 -10   24.42    5.80
  -2   2 -10   30.59    7.10
  -2   2 -10   22.64    9.70
  -2   2 -10   17.71    3.91
  -2   2 -10   33.60    7.86
  -2   2 -11  100.07   13.05
  -2   2 -11   98.97   12.98
  -2   2 -11   85.70   11.19
  -2   2 -12  973.04   43.63
  -2   2 -12  930.83   42.61
  -2   2 -14  271.76   19.41
  -2   2 -14  273.29   20.53
  -2   2 -15  401.89   22.48
  -2   2 -16  343.70   19.34
   2  -2  17   56.09    5.48
  -2   2 -17   62.76    6.15
   2  -1 -15   91.51    7.81
   2  -1 -15  102.82   10.17
   2  -1 -14   41.63    6.26
   2  -1 -14   41.48    9.11
   2  -1 -14   48.38    7.93
   2  -1 -13  366.11   22.25
   2  -1 -13  357.98   22.28
   2  -1 -13  386.10   22.91
   2  -1 -13  424.85   25.59
   2  -1 -13  402.87   27.28
   2  -1 -12  143.28   13.63
   2  -1 -12  151.13   14.83
   2  -1 -12  119.24   13.03
   2  -1 -12  142.38   15.27
   2  -1 -12  152.18   17.09
   2  -1 -11   32.62    7.74
   2  -1 -11   18.04    5.00
   2  -1 -11   16.16    3.76
   2  -1 -11   28.20    8.37
   2  -1 -11   21.04    6.58
   2  -1 -10   63.25    9.70
   2  -1 -10   68.46   11.07
   2  -1 -10   62.28   10.59
   2  -1 -10   48.66    8.65
   2  -1 -10   58.80   12.04
   2  -1 -10   69.35   10.68
   2  -1  -9   57.76   13.27
   2  -1  -9   83.93   14.78
   2  -1  -9   70.23   16.16
   2  -1  -9   41.29    8.30
   2  -1  -9   41.22    8.51
   2  -1  -9   44.15    7.56
   2  -1  -9   48.50   11.10
   2  -1  -9   63.98   11.40
   2  -1  -8  336.59   27.15
   2  -1  -8  317.35   25.85
   2  -1  -8  326.49   32.40
   2  -1  -8  305.10   24.57
   2  -1  -8  306.12   24.41
   2  -1  -8  375.62   30.87
   2  -1  -7  754.46   43.20
   2  -1  -7  792.23   50.75
   2  -1  -7  844.65   45.93
   2  -1  -6   71.75   12.19
   2  -1  -5  358.38   32.25
  -2   1   5  462.67   29.62
   2  -1  -5  392.17   26.47
   2  -1  -4   45.26   10.60
  -2   1   4   42.00   11.33
   2  -1  -3    0.52    4.05
  -2   1   3    9.09    8.15
   2  -1  -2  745.26   56.91
  -2   1   2  759.16   51.66
  -2   1   1   -0.99    9.00
  -2   1   0 1452.98   80.59
   2  -1   1  131.81   22.56
  -2   1  -1  136.79   24.01
   2  -1   1  119.41   11.67
   2  -1   2  496.14   42.71
  -2   1  -2  418.66   22.00
   2  -1   3  747.58   52.93
  -2   1  -3  830.28   40.72
  -2   1  -3  864.91   56.94
   2  -1   4   25.47   10.93
  -2   1  -4   20.97    5.95
  -2   1  -4   21.82    4.78
  -2   1  -4   28.88    7.24
   2  -1   5   29.24    9.12
  -2   1  -5   41.78    9.84
  -2   1  -5   26.93    8.20
   2  -1   6   58.65    8.66
  -2   1  -6   69.90   11.17
  -2   1  -6   66.13   13.14
  -2   1  -7   -0.90    6.07
  -2   1  -8 2105.87   78.70
  -2   1  -8 1780.71   91.87
  -2   1  -9   69.13   10.84
  -2   1  -9   55.51    9.43
  -2   1  -9   78.95   11.86
  -2   1  -9   42.35   12.06
  -2   1  -9   62.08    9.89
  -2   1 -10   38.04    8.18
  -2   1 -10   34.41    7.30
  -2   1 -10   33.41    7.42
  -2   1 -10   37.47    8.73
  -2   1 -11   16.48    6.38
  -2   1 -11    1.82    3.71
  -2   1 -11   18.61    5.77
  -2   1 -11    5.58    2.91
  -2   1 -12  292.56   22.44
  -2   1 -12  397.15   24.04
  -2   1 -13  181.17   15.56
  -2   1 -14  153.22   13.51
  -2   1 -14  191.45   16.17
  -2   1 -15  179.26   15.07
  -2   1 -16  178.91   13.80
  -2   1 -17   99.84    8.75
  -2   1 -17  185.05   11.20
   2   0 -15   74.53    6.71
   2   0 -15  149.81   12.42
   2   0 -14   42.37    6.12
   2   0 -14   39.56    5.98
   2   0 -14   52.21    8.55
   2   0 -14   60.13    8.35
   2   0 -13   23.78    7.09
   2   0 -13   22.48    4.62
   2   0 -13   14.79    4.34
   2   0 -13   33.85    9.75
   2   0 -13   26.04    7.15
   2   0 -12   24.76    5.70
   2   0 -12   16.63    4.25
   2   0 -11  178.30   16.91
   2   0 -11  126.04   13.77
   2   0 -11  130.13   15.66
   2   0 -11  187.83   18.76
   2   0 -10 1292.00   57.58
   2   0 -10 1143.93   53.96
   2   0  -9  315.86   24.37
   2   0  -9  262.93   23.39
   2   0  -9  238.79   21.13
   2   0  -9  215.54   19.48
   2   0  -9  367.35   28.79
   2   0  -9  282.54   24.05
   2   0  -8  121.43   14.69
   2   0  -8  138.59   15.70
   2   0  -8  170.88   18.86
   2   0  -8  129.17   21.19
   2   0  -7   50.06   13.82
   2   0  -7   64.44   14.93
   2   0  -7   16.43    7.55
   2   0  -6   82.30   13.20
   2   0  -6   91.76   13.77
   2   0  -6  102.41   14.39
   2   0  -5  403.90   29.66
   2   0  -5  576.74   40.88
   2   0  -4  347.32   26.54
   2   0  -4  535.14   37.14
   2   0  -3 1610.51   64.33
  -2   0   3 1672.93   71.52
   2   0  -2 1493.02   72.08
  -2   0   2 1674.15   75.39
  -2   0   1   25.34    8.47
  -2   0   0  431.90   37.65
  -2   0  -1   16.76    9.84
   2   0   1    2.67    1.53
   2   0   2   67.38   15.71
  -2   0  -3 1479.18   57.15
  -2   0  -3 1603.26   60.77
  -2   0  -4  433.53   30.40
  -2   0  -4  395.32   26.71
  -2   0  -4  468.83   33.84
  -2   0  -5 2372.96   87.24
  -2   0  -5 2363.25   97.01
  -2   0  -6  132.60   19.80
  -2   0  -7   50.03    5.19
  -2   0  -7   56.75    9.90
  -2   0  -9   78.96   10.56
  -2   0  -9   80.86   11.72
  -2   0  -9   88.87   11.62
  -2   0 -10  354.01   23.73
  -2   0 -10  319.71   25.38
  -2   0 -10  297.10   23.85
  -2   0 -10  366.85   24.74
  -2   0 -11 1686.16   61.41
  -2   0 -11 1492.72   57.11
  -2   0 -11 1403.83   61.74
  -2   0 -11 1612.90   61.40
  -2   0 -12  123.12   12.84
  -2   0 -12  100.72   11.93
  -2   0 -13  461.33   25.93
  -2   0 -13  542.60   30.40
  -2   0 -14   77.06    9.81
  -2   0 -14   81.42   10.99
  -2   0 -15   97.90   12.30
  -2   0 -15   86.14    9.69
  -2   0 -15  100.80   11.09
  -2   0 -16   89.79    9.13
  -2   0 -16  107.65   10.12
  -2   0 -17   15.45    3.44
  -2   0 -17    8.45    2.49
   2   1 -15  150.61   14.37
   2   1 -14  257.73   14.16
   2   1 -14  464.72   26.85
   2   1 -13   28.17    6.58
   2   1 -13   20.71    4.74
   2   1 -13   32.10    6.74
   2   1 -13   43.64    7.88
   2   1 -12    4.66    2.11
   2   1 -12    1.07    1.86
   2   1 -12   -1.31    2.15
   2   1 -11  286.64   21.01
   2   1 -10 1602.74   67.02
   2   1 -10 2148.30   73.71
   2   1  -9  207.75   19.02
   2   1  -9  204.35   28.85
   2   1  -8   53.60   10.91
   2   1  -8   39.97    8.38
   2   1  -8   64.33   10.09
   2   1  -8   50.01   13.30
   2   1  -8   55.64   11.36
   2   1  -8   65.12   11.04
   2   1  -7  176.18   18.71
   2   1  -7  201.19   18.39
   2   1  -7  156.40   23.39
   2   1  -6  914.71   46.73
   2   1  -6  896.36   57.51
   2   1  -5  695.89   38.14
   2   1  -5 1013.07   57.31
   2   1  -4  935.03   50.38
  -2  -1   4  871.06   37.71
  -2  -1   3  931.77   41.77
   2   1  -3  973.63   44.88
   2   1  -3  902.17   44.78
   2   1  -2  845.31   46.23
   2   1  -2  774.35   30.93
   2   1  -1   15.99    9.37
  -2  -1   0    5.69    6.31
  -2  -1  -1  207.36   11.39
  -2  -1  -1  218.68   26.35
   2   1   2  124.52   20.54
   2   1   3 1078.13   59.61
   2   1   4   28.17    8.19
  -2  -1  -4   25.51    6.80
  -2  -1  -5 2252.51   77.69
   2   1   5 2314.98   87.41
  -2  -1  -6  552.49   26.60
  -2  -1  -7  514.26   32.74
  -2  -1  -8  355.11   26.36
  -2  -1 -10  143.29   13.86
  -2  -1 -10  169.69   15.00
  -2  -1 -10  130.36   15.12
  -2  -1 -10  156.90   16.11
  -2  -1 -10  168.46   15.66
  -2  -1 -10  157.53   14.83
  -2  -1 -10  143.90   14.38
  -2  -1 -11 2289.92   71.00
  -2  -1 -11 1871.05   70.05
  -2  -1 -11 2072.10   76.10
  -2  -1 -11 2139.09   71.43
  -2  -1 -11 2049.33   74.52
  -2  -1 -12  365.54   21.73
  -2  -1 -12  346.68   25.07
  -2  -1 -12  333.46   24.43
  -2  -1 -13  432.16   26.31
  -2  -1 -13  400.38   25.35
  -2  -1 -14  782.15   36.18
  -2  -1 -14  756.78   35.67
  -2  -1 -15  787.59   37.77
  -2  -1 -15  683.26   33.55
  -2  -1 -15  709.32   34.10
  -2  -1 -16    0.55    1.82
  -2  -1 -16    2.29    2.61
  -2  -1 -16    2.16    2.38
  -2  -1 -17    1.41    1.42
  -2  -1 -17    0.68    1.29
   2   2 -15   93.51    8.32
   2   2 -14   28.34    4.77
   2   2 -13   34.59    5.37
   2   2 -13   42.45    6.16
   2   2 -13   49.28    7.68
  -2  -2  13   45.37    7.15
   2   2 -13   49.26    7.65
   2   2 -12   66.19    9.39
   2   2 -12  106.69   11.73
   2   2 -12   87.29    9.83
  -2  -2  12   73.01   10.01
   2   2 -12   83.45   11.04
   2   2 -11  115.98   12.73
   2   2 -11   94.74   12.38
   2   2 -10 1125.70   48.39
   2   2 -10 1005.63   46.17
   2   2 -10  931.16   44.71
   2   2 -10 1059.27   48.80
   2   2  -9  104.58   12.76
   2   2  -9  159.52   25.66
   2   2  -9   97.10   11.49
   2   2  -9  153.74   15.91
   2   2  -8  187.52   18.30
   2   2  -8  156.60   15.78
   2   2  -8  229.13   30.14
   2   2  -8  205.69   19.84
   2   2  -7   88.39   11.66
   2   2  -7  111.06   19.77
   2   2  -6   43.69    8.88
   2   2  -5  334.87   24.31
   2   2  -5  333.45   21.74
   2   2  -4  171.58   17.89
   2   2  -4  167.82   14.02
  -2  -2   4  208.47   19.74
   2   2  -4  215.89   14.87
   2   2  -3 1376.28   46.65
  -2  -2   3 1301.50   60.31
  -2  -2   2 1694.64   75.07
   2   2  -2 1987.49   57.06
  -2  -2   1   51.24    9.76
  -2  -2   0  747.44   45.64
  -2  -2  -1    2.00    7.20
  -2  -2  -1    0.24    1.51
  -2  -2  -2  193.58   15.34
  -2  -2  -2  169.92   14.63
  -2  -2  -2  186.25   16.99
  -2  -2  -3 1048.85   51.47
  -2  -2  -3 1091.36   51.75
  -2  -2  -4  353.76   25.56
  -2  -2  -5 1567.48   62.08
  -2  -2  -6   59.01    9.84
   2   2   6   60.14    9.85
  -2  -2  -7   29.82    6.38
  -2  -2  -7   12.81    4.44
  -2  -2  -8  201.92   17.69
  -2  -2  -8  131.95   11.96
  -2  -2  -9   28.26    5.54
  -2  -2  -9   28.81    7.13
  -2  -2  -9   27.65    6.30
  -2  -2 -10  218.59   16.20
  -2  -2 -10  203.16   17.16
  -2  -2 -10  203.95   17.44
  -2  -2 -10  177.47   15.50
  -2  -2 -10  196.60   17.57
  -2  -2 -11  793.30   38.54
  -2  -2 -11  692.25   34.77
  -2  -2 -12   43.08    7.26
  -2  -2 -13  369.42   24.27
  -2  -2 -13  367.58   24.87
  -2  -2 -13  364.74   29.83
  -2  -2 -13  458.24   27.28
  -2  -2 -14   42.19    7.53
  -2  -2 -14   41.64   10.60
  -2  -2 -14   40.69    7.56
  -2  -2 -15   35.40    8.88
  -2  -2 -15   68.42    9.28
  -2  -2 -16   65.42    9.28
  -2  -2 -16   86.42    9.37
  -2  -2 -17    3.94    1.69
   2   3 -15   92.15    9.01
   2   3 -15   72.14    6.60
   2   3 -14   54.83    5.86
   2   3 -14   59.04    7.11
   2   3 -13  420.30   22.45
  -2  -3  13  432.41   25.74
   2   3 -13  393.62   21.08
   2   3 -13  418.13   23.49
   2   3 -12  135.89   13.17
   2   3 -12  124.97   12.86
  -2  -3  12  121.18   14.14
   2   3 -12  112.42   10.45
   2   3 -12  127.26   13.08
   2   3 -11   39.71    7.18
   2   3 -11   35.42    5.89
   2   3 -11   33.82    5.59
   2   3 -11   33.83    6.57
   2   3 -10    9.80    4.98
   2   3 -10    5.79    4.23
   2   3 -10    9.53    4.69
   2   3 -10    7.52    4.91
   2   3  -9  120.67   12.66
   2   3  -9  116.18   14.05
  -2  -3   9  141.21   16.46
   2   3  -9  115.30   12.59
   2   3  -9  135.77   14.48
   2   3  -8  345.33   23.46
   2   3  -8  374.60   26.30
  -2  -3   8  415.44   29.68
   2   3  -8  412.23   27.89
   2   3  -7  946.05   44.39
   2   3  -7 1100.95   47.06
   2   3  -6  265.04   21.04
   2   3  -6  242.20   19.44
   2   3  -5  725.27   36.60
   2   3  -5  577.77   32.30
  -2  -3   4   48.87   12.82
  -2  -3   3   34.84   10.04
  -2  -3   2  474.38   40.81
  -2  -3   1   29.50    9.94
  -2  -3   0 1683.46   49.51
  -2  -3   0 1362.96   79.29
  -2  -3  -1  196.10   16.67
  -2  -3  -1  208.38   18.21
  -2  -3  -1  176.17   11.97
  -2  -3  -2  460.25   30.61
  -2  -3  -2  489.77   32.51
  -2  -3  -3  729.62   49.01
  -2  -3  -3  637.17   39.62
  -2  -3  -4  134.97   20.35
  -2  -3  -5   15.42    9.07
  -2  -3  -6  156.92   19.45
  -2  -3  -6  177.68   22.03
  -2  -3  -6  156.35   16.63
  -2  -3  -7   51.97   11.14
  -2  -3  -7   53.77    9.79
  -2  -3  -8 1820.67   64.77
  -2  -3  -8 1515.11   73.14
  -2  -3  -9  103.06   14.44
  -2  -3  -9  100.77   12.90
  -2  -3  -9   93.41   11.22
  -2  -3  -9  108.30   13.23
  -2  -3  -9   97.14   14.77
  -2  -3  -9   81.42    9.65
  -2  -3  -9  109.91   12.97
  -2  -3  -9   95.45   11.63
  -2  -3 -10   33.91    7.61
  -2  -3 -10   29.27    7.07
  -2  -3 -10   34.06    9.00
  -2  -3 -10   22.53    6.56
  -2  -3 -10   28.93    7.61
  -2  -3 -10   29.46    6.37
  -2  -3 -10   28.65    8.08
  -2  -3 -11   33.44    7.69
  -2  -3 -11   35.44    7.84
  -2  -3 -11   19.62    5.30
  -2  -3 -11   31.48    7.38
  -2  -3 -11   26.04    6.16
  -2  -3 -11   42.64    9.99
  -2  -3 -11   30.82    6.48
  -2  -3 -12  274.61   21.30
  -2  -3 -12  262.59   21.60
  -2  -3 -12  308.30   26.98
  -2  -3 -12  321.27   24.78
  -2  -3 -12  260.14   20.45
  -2  -3 -12  283.20   21.98
  -2  -3 -12  305.33   23.30
  -2  -3 -12  234.96   18.73
  -2  -3 -13  174.94   17.00
  -2  -3 -13  135.48   13.66
  -2  -3 -13  141.28   14.89
  -2  -3 -13  156.86   19.06
  -2  -3 -13  153.20   14.74
  -2  -3 -14  147.74   14.39
  -2  -3 -14  147.38   16.68
  -2  -3 -14  125.63   13.11
  -2  -3 -14  125.71   13.82
  -2  -3 -15  126.69   12.06
  -2  -3 -15  122.98   12.96
  -2  -3 -15  124.33   14.16
  -2  -3 -15  129.64   12.81
  -2  -3 -16  210.14   15.28
  -2  -3 -16  239.75   15.89
  -2  -3 -16  215.70   16.79
  -2  -3 -17   72.53    8.10
  -2  -3 -17   90.96    8.09
  -2  -4  15  185.88   11.20
   2   4 -15  174.03   12.09
   2   4 -14  121.12    9.76
  -2  -4  14  134.33   11.82
   2   4 -14  115.69    9.39
   2   4 -13  651.90   30.35
  -2  -4  13  681.30   34.11
   2   4 -13  667.06   30.04
   2   4 -12   93.05   10.11
  -2  -4  12  110.73   13.25
   2   4 -12   99.44   10.95
   2   4 -11   62.29    8.47
   2   4 -11   68.94    9.80
   2   4 -11   76.12   10.34
   2   4 -10   42.83    7.39
  -2  -4  10   44.09    9.68
   2   4 -10   59.88    9.42
   2   4 -10   47.27    8.53
   2   4  -9   53.68    9.24
  -2  -4   9   44.11    9.08
   2   4  -9   46.12    7.80
   2   4  -9   66.86   16.53
   2   4  -9   57.11    9.20
  -2  -4   8  264.35   24.93
   2   4  -8  289.79   22.86
   2   4  -8  250.41   19.05
   2   4  -8  293.97   34.54
   2   4  -8  287.15   22.14
  -2  -4   7 1323.70   64.02
   2   4  -7 1315.08   53.40
   2   4  -6  753.87   38.09
   2   4  -5 1078.70   46.86
   2   4  -5 1111.63   47.91
  -2  -4   4   17.63   10.73
   2   4  -4   35.14    6.97
  -2  -4   3  325.15   42.21
  -2  -4   2   55.31   19.44
  -2  -4   2   37.06   16.71
  -2  -4   1   90.96   24.87
  -2  -4   1   81.47    5.70
  -2  -4   1   93.03   11.93
  -2  -4   1   86.93   23.75
  -2  -4   0 1408.46   98.63
  -2  -4   0 1527.98  115.43
  -2  -4   0 1616.34   66.30
  -2  -4  -1  566.91   59.97
  -2  -4  -1  709.05   37.54
  -2  -4  -1  708.58   33.23
  -2  -4  -1  695.53   73.84
  -2  -4  -1  709.80   42.19
  -2  -4  -2  692.81   38.86
  -2  -4  -3  553.05   42.70
  -2  -4  -3  734.42   63.05
  -2  -4  -3  623.86   59.58
  -2  -4  -4  326.20   30.88
  -2  -4  -4  297.26   35.23
  -2  -4  -5   50.74   15.32
  -2  -4  -5   51.91    8.59
  -2  -4  -6  277.77   33.38
  -2  -4  -6  263.43   22.82
  -2  -4  -7  277.23   27.12
  -2  -4  -8 2219.13   93.12
  -2  -4  -9  114.37   17.49
  -2  -4  -9  127.32   14.77
  -2  -4  -9  139.39   16.92
  -2  -4  -9  157.92   15.66
  -2  -4  -9  142.45   14.17
  -2  -4  -9  140.83   19.23
  -2  -4  -9  150.34   16.95
  -2  -4  -9  135.46   14.97
  -2  -4 -10   71.33   10.71
  -2  -4 -10   66.27   11.26
  -2  -4 -10   67.95   11.32
  -2  -4 -10   61.31    9.93
  -2  -4 -10   82.04   12.57
  -2  -4 -10   68.60   10.39
  -2  -4 -10   59.28    9.88
  -2  -4 -10   59.29   13.22
  -2  -4 -11   93.42   13.17
  -2  -4 -11   88.48   11.58
  -2  -4 -11   91.25   13.13
  -2  -4 -11   89.22   12.97
  -2  -4 -11   81.22   11.76
  -2  -4 -11  103.00   16.44
  -2  -4 -11   63.93    9.88
  -2  -4 -11   73.78   10.05
  -2  -4 -12  659.29   33.94
  -2  -4 -12  772.06   40.50
  -2  -4 -12  666.40   37.16
  -2  -4 -12  729.57   38.21
  -2  -4 -12  776.25   46.45
  -2  -4 -12  629.94   34.50
  -2  -4 -12  760.18   39.56
  -2  -4 -12  659.14   34.78
  -2  -4 -13  211.37   19.54
  -2  -4 -13  203.01   17.61
  -2  -4 -13  202.07   18.09
  -2  -4 -13  214.29   18.07
  -2  -4 -13  212.68   22.28
  -2  -4 -13  205.89   17.99
  -2  -4 -13  205.45   17.53
  -2  -4 -14  267.76   21.14
  -2  -4 -14  279.80   24.20
  -2  -4 -14  269.74   20.20
  -2  -4 -14  262.45   18.91
  -2  -4 -14  253.06   18.71
  -2  -4 -15  370.95   21.76
  -2  -4 -15  393.44   26.11
  -2  -4 -15  339.81   21.63
  -2  -4 -15  346.11   21.34
  -2  -4 -16  372.17   22.33
  -2  -4 -16  367.46   20.42
  -2  -4 -16  364.41   20.08
  -2  -4 -17   55.64    6.55
  -2  -4 -17   46.25    5.38
  -2  -5  15  120.38    8.58
   2   5 -14   14.92    3.44
  -2  -5  14   21.31    4.35
   2   5 -13  263.16   17.25
  -2  -5  13  262.65   19.47
  -2  -5  12   29.88    6.52
   2   5 -11    4.27    2.70
   2   5 -11   -1.15    3.05
   2   5 -11   -1.69    3.31
   2   5 -10   88.62   11.82
  -2  -5  10  110.36   15.93
   2   5 -10  109.34   21.82
   2   5 -10   99.34   11.15
  -2  -5   9    8.08    5.49
  -2  -5   9    1.99    4.92
   2   5  -9   10.71    4.91
   2   5  -9    8.81    5.06
   2   5  -9    9.32    4.00
  -2  -5   8   75.66   11.54
   2   5  -8   89.18   12.21
  -2  -5   8   54.72   11.60
   2   5  -8   74.24    9.74
  -2  -5   7  346.75   30.70
  -2  -5   7  355.12   27.78
   2   5  -7  408.61   27.51
   2   5  -7  373.11   23.90
  -2  -5   6  117.01   17.62
   2   5  -6  104.69   12.11
   2   5  -5 1070.31   44.78
   2   5  -4    0.34    3.54
  -2  -5   3   45.21   18.62
  -2  -5   3   35.52   17.00
  -2  -5   2  240.19   48.61
  -2  -5   2  163.90   19.30
  -2  -5   2  161.24   34.89
  -2  -5   1    2.69   14.73
  -2  -5   1    7.01    6.52
  -2  -5   1    6.15   18.22
  -2  -5   0 1618.99  133.66
  -2  -5   0 1701.87   82.47
  -2  -5   0 1605.37   65.23
  -2  -5   0 1545.16   68.64
  -2  -5   0 1879.95  159.02
  -2  -5  -1 1222.53   71.59
  -2  -5  -1 1045.56  104.46
  -2  -5  -1 1121.64   51.07
  -2  -5  -1 1134.81   55.81
  -2  -5  -1 1223.80  125.76
  -2  -5  -2  158.70   19.28
  -2  -5  -3  687.77   76.48
  -2  -5  -3  480.45   63.24
  -2  -5  -4  416.14   25.27
  -2  -5  -4  340.05   44.38
  -2  -5  -5  101.66   18.66
  -2  -5  -5  164.74   33.43
  -2  -5  -5  153.76   16.54
  -2  -5  -5  129.78   23.71
  -2  -5  -6  230.91   21.47
  -2  -5  -7  135.97   16.50
  -2  -5  -8  623.90   45.41
  -2  -5  -8  574.36   37.95
  -2  -5  -8  770.55   41.78
  -2  -5  -8  705.96   45.27
  -2  -5  -9   -2.56    6.99
  -2  -5  -9   -0.41    2.45
  -2  -5  -9   -0.52    3.65
  -2  -5  -9    3.62    3.55
  -2  -5  -9   -3.77    6.00
  -2  -5  -9    3.32    3.50
  -2  -5  -9   -3.20    6.32
  -2  -5 -10   36.12    9.95
  -2  -5 -10   40.29    7.37
  -2  -5 -10   39.86    8.55
  -2  -5 -10   36.82    8.66
  -2  -5 -10   47.36    9.25
  -2  -5 -10   51.69   10.59
  -2  -5 -10   40.61    7.98
  -2  -5 -10   37.65   10.54
  -2  -5 -11   61.73   10.30
  -2  -5 -11   64.78    9.45
  -2  -5 -11   76.95   12.37
  -2  -5 -11   73.15   14.94
  -2  -5 -11   68.16   10.55
  -2  -5 -11   57.12    9.41
  -2  -5 -11   73.06   11.16
  -2  -5 -11   71.82   10.62
  -2  -5 -11   65.50   11.46
  -2  -5 -12  134.34   14.83
  -2  -5 -12  127.94   12.30
  -2  -5 -12  133.73   16.11
  -2  -5 -12  130.52   18.60
  -2  -5 -12  169.29   17.71
  -2  -5 -12  131.86   16.21
  -2  -5 -12  117.31   14.09
  -2  -5 -12  130.33   13.89
  -2  -5 -13  223.29   19.86
  -2  -5 -13  217.31   22.69
  -2  -5 -13  219.54   18.14
  -2  -5 -13  201.64   17.64
  -2  -5 -13  206.38   17.42
  -2  -5 -13  237.68   19.64
  -2  -5 -14   35.71    7.07
  -2  -5 -14   25.13    5.25
  -2  -5 -14   29.77    6.51
  -2  -5 -14   29.86    5.93
  -2  -5 -15   89.25    9.63
  -2  -5 -15   82.76   11.31
  -2  -5 -15   83.31    8.83
  -2  -5 -16  149.80   11.10
  -2  -5 -16  146.56   12.90
  -2  -6  14   74.17    8.11
   2   6 -14   82.66    7.69
  -2  -6  13   -1.75    1.65
   2   6 -13    6.60    2.77
  -2  -6  12    3.52    3.40
   2   6 -12    2.71    2.87
   2   6 -11   58.94    8.40
  -2  -6  11   48.14    9.40
   2   6 -11   49.62   13.90
  -2  -6  10  803.62   46.00
   2   6 -10  769.45   38.27
   2   6 -10  859.09   62.96
   2   6  -9  187.98   17.66
  -2  -6   9  204.22   21.92
  -2  -6   9  156.10   17.03
   2   6  -9  232.05   31.75
  -2  -6   8   24.47    9.93
   2   6  -8   27.15    6.32
  -2  -6   8   19.18    6.07
   2   6  -8   20.18    4.71
  -2  -6   7    6.41    4.41
   2   6  -7    7.24    5.03
  -2  -6   7   -0.77    4.47
   2   6  -7    2.87    3.14
   2   6  -6   64.28   10.49
  -2  -6   6   77.59   15.04
  -2  -6   6   62.33   12.00
   2   6  -6   74.52   17.25
   2   6  -6   60.44    9.16
  -2  -6   5  447.90   37.21
  -2  -6   5  436.50   38.06
   2   6  -5  485.98   25.86
  -2  -6   4  152.60   31.66
  -2  -6   3  962.35   89.61
  -2  -6   2  906.81  100.28
  -2  -6   2  896.00   93.43
  -2  -6   1   -3.60   31.35
  -2  -6   1   24.43    8.57
  -2  -6   1   29.18    7.64
  -2  -6   1   21.92   22.29
  -2  -6   0  154.53   23.35
  -2  -6   0  142.39   42.28
  -2  -6   0  149.41   18.20
  -2  -6   0  145.51   19.73
  -2  -6   0  121.75   49.77
  -2  -6  -1    1.20    5.15
  -2  -6  -1   12.88   21.37
  -2  -6  -1    0.63    3.62
  -2  -6  -1    6.84    3.53
  -2  -6  -1   22.51   21.20
  -2  -6  -2    7.16    5.89
  -2  -6  -2    9.41    6.83
  -2  -6  -3  580.27   79.10
  -2  -6  -3  495.18   28.36
  -2  -6  -3  506.23   72.87
  -2  -6  -4  138.39   34.21
  -2  -6  -4  140.58   30.15
  -2  -6  -4  134.80   15.68
  -2  -6  -5 1238.43   75.70
  -2  -6  -5 1221.40   89.76
  -2  -6  -6  211.47   27.59
  -2  -6  -6  237.74   23.21
  -2  -6  -7    4.18    2.58
  -2  -6  -7    2.61    6.14
  -2  -6  -7    3.68    2.03
  -2  -6  -7    5.25    4.67
  -2  -6  -7    1.39    4.33
  -2  -6  -8    3.83    6.59
  -2  -6  -8    0.79    3.26
  -2  -6  -8    2.14    2.33
  -2  -6  -8    5.03    4.00
  -2  -6  -8    4.69    3.41
  -2  -6  -9  192.53   25.97
  -2  -6  -9  245.67   20.91
  -2  -6  -9  230.21   23.05
  -2  -6  -9  241.73   27.09
  -2  -6  -9  211.47   22.06
  -2  -6  -9  268.49   21.60
  -2  -6  -9  236.71   19.76
  -2  -6 -10  105.45   18.21
  -2  -6 -10  138.35   15.72
  -2  -6 -10  142.58   17.64
  -2  -6 -10  147.70   17.63
  -2  -6 -10  163.36   18.95
  -2  -6 -10  128.71   14.76
  -2  -6 -10  124.22   19.29
  -2  -6 -10  114.05   13.24
  -2  -6 -11  739.42   38.75
  -2  -6 -11  802.56   43.74
  -2  -6 -11  717.23   49.61
  -2  -6 -11  801.99   44.23
  -2  -6 -11  704.64   37.66
  -2  -6 -11  677.57   37.06
  -2  -6 -11  660.41   38.23
  -2  -6 -12   61.02    9.63
  -2  -6 -12   77.47   15.03
  -2  -6 -12   83.15   12.30
  -2  -6 -12   66.34    9.87
  -2  -6 -12   70.44   10.23
  -2  -6 -12   69.28   11.24
  -2  -6 -12   66.01   10.08
  -2  -6 -13  198.88   18.84
  -2  -6 -13  205.70   18.08
  -2  -6 -13  211.71   22.50
  -2  -6 -13  172.86   15.76
  -2  -6 -13  196.03   17.38
  -2  -6 -13  189.24   16.38
  -2  -6 -14   69.21    9.70
  -2  -6 -14   66.55    9.11
  -2  -6 -14   69.98    8.96
  -2  -6 -14   61.59    8.47
  -2  -6 -14   63.95   10.97
  -2  -6 -15   68.62    9.93
  -2  -6 -15   55.06    6.93
  -2  -6 -15   68.17    7.96
  -2  -6 -16   27.24    5.02
  -2  -7  14  133.26   10.09
   2   7 -14  143.76    9.55
  -2  -7  13    3.67    2.79
  -2  -7  12   34.05    6.77
  -2  -7  11  127.62   15.10
  -2  -7  11  137.30   13.80
  -2  -7  10  985.98   51.70
  -2  -7  10  943.44   51.34
   2   7 -10 1009.51   43.75
   2   7 -10 1125.52   72.56
   2   7  -9  150.83   15.38
  -2  -7   9  138.72   18.58
  -2  -7   9  141.79   16.71
   2   7  -9  178.61   28.87
  -2  -7   8  200.10   20.64
  -2  -7   8  184.55   21.82
   2   7  -8  208.76   19.24
  -2  -7   7   12.25    2.89
  -2  -7   7   26.19    9.18
   2   7  -7   30.26    7.06
  -2  -7   6  102.03   15.80
   2   7  -6  131.53   15.01
  -2  -7   6  111.29   17.81
   2   7  -6  101.65   21.58
  -2  -7   5  138.22   19.50
  -2  -7   5  156.39   21.49
  -2  -7   4  245.35   28.70
  -2  -7   4  282.29   46.14
  -2  -7   3 1255.88  113.50
  -2  -7   2 1974.96   92.51
  -2  -7   2 1772.34  145.81
  -2  -7   1   15.51   10.41
  -2  -7   1   11.14    7.75
  -2  -7   1    5.66    5.84
  -2  -7   1   36.38   33.10
  -2  -7   0   38.69   13.72
  -2  -7   0   53.15   12.83
  -2  -7   0   32.07   10.86
  -2  -7   0   56.78   37.78
  -2  -7  -1  248.79   35.28
  -2  -7  -1  374.84   35.32
  -2  -7  -1  336.16   22.02
  -2  -7  -1  331.51   85.58
  -2  -7  -2    4.31    9.67
  -2  -7  -2    2.86    2.58
  -2  -7  -2    0.86    3.18
  -2  -7  -3  896.48  106.93
  -2  -7  -3  863.76   43.90
  -2  -7  -4  914.10   49.12
  -2  -7  -4  902.98   91.56
  -2  -7  -5 1041.62   73.41
  -2  -7  -5 1300.16   62.32
  -2  -7  -5 1238.12   99.09
  -2  -7  -5 1316.23   61.57
  -2  -7  -5 1231.72   53.51
  -2  -7  -6  229.47   21.66
  -2  -7  -6  188.16   27.29
  -2  -7  -6  186.56   21.50
  -2  -7  -6  246.06   29.65
  -2  -7  -6  180.32   30.60
  -2  -7  -6  244.80   24.59
  -2  -7  -6  273.57   26.28
  -2  -7  -6  207.36   19.98
  -2  -7  -7   94.37   13.70
  -2  -7  -7   95.29   20.46
  -2  -7  -7  141.78   20.50
  -2  -7  -7  111.56   16.70
  -2  -7  -7  132.71   16.62
  -2  -7  -7  123.58   14.85
  -2  -7  -7  120.91   17.51
  -2  -7  -7  112.36   13.77
  -2  -7  -8    0.68    3.74
  -2  -7  -8    2.21    2.69
  -2  -7  -8   -3.49    5.94
  -2  -7  -8    2.97    5.26
  -2  -7  -8   -4.63    5.10
  -2  -7  -8   -4.26    5.61
  -2  -7  -8   -1.80    3.16
  -2  -7  -9  128.71   14.53
  -2  -7  -9  111.83   17.35
  -2  -7  -9  133.46   17.87
  -2  -7  -9  128.27   14.96
  -2  -7  -9  108.87   19.43
  -2  -7  -9  128.46   15.34
  -2  -7 -10  237.26   19.94
  -2  -7 -10  282.89   26.48
  -2  -7 -10  223.96   22.48
  -2  -7 -10  222.64   20.46
  -2  -7 -10  208.13   25.08
  -2  -7 -10  248.37   21.22
  -2  -7 -10  254.50   24.20
  -2  -7 -11  993.86   51.81
  -2  -7 -11  882.82   41.86
  -2  -7 -11  850.05   55.44
  -2  -7 -11  858.44   43.33
  -2  -7 -11  990.20   49.85
  -2  -7 -11  865.38   42.71
  -2  -7 -11  985.08   50.11
  -2  -7 -12  195.50   19.55
  -2  -7 -12  163.87   17.51
  -2  -7 -12  157.18   14.34
  -2  -7 -12  176.84   21.80
  -2  -7 -12  199.10   18.72
  -2  -7 -12  162.00   16.40
  -2  -7 -12  168.70   15.95
  -2  -7 -12  138.32   14.62
  -2  -7 -13  249.55   18.12
  -2  -7 -13  266.53   20.17
  -2  -7 -13  274.35   25.19
  -2  -7 -13  269.42   20.16
  -2  -7 -13  248.22   18.24
  -2  -7 -14   45.38    6.66
  -2  -7 -14   35.23    5.62
  -2  -7 -14   43.10    6.81
  -2  -7 -14   38.34    8.63
  -2  -7 -15  130.36   10.46
  -2  -7 -15  150.06   13.70
  -2  -8  13   19.99    4.23
   2   8 -13   27.89    4.18
  -2  -8  12   26.42    5.81
   2   8 -12   17.55    4.15
  -2  -8  11   16.95    4.86
  -2  -8  11   12.98    3.09
   2   8 -11   17.35    4.17
  -2  -8  10  259.46   23.48
  -2  -8   9    3.27    3.54
   2   8  -9    4.34    2.96
  -2  -8   9    6.55    3.66
   2   8  -9    4.00    4.72
  -2  -8   8   84.33   12.34
   2   8  -8  113.69   13.83
  -2  -8   8  125.40   18.06
  -2  -8   8  110.20   17.81
  -2  -8   7   14.19    6.32
  -2  -8   7   17.65    9.60
  -2  -8   7   25.24    9.22
   2   8  -7   16.32    6.34
  -2  -8   6   17.50    6.36
  -2  -8   6   30.80   10.50
  -2  -8   6   45.82   11.47
   2   8  -6   34.49    7.57
   2   8  -6   29.93   13.91
  -2  -8   5   33.62    8.87
  -2  -8   5   40.67    8.81
   2   8  -5   52.72   18.11
  -2  -8   4    6.91    8.84
  -2  -8   4    4.62    6.00
  -2  -8   4    0.95    4.75
  -2  -8   4    3.25    3.56
  -2  -8   4    1.40    5.85
  -2  -8   4    2.71    8.14
  -2  -8   3  284.90   32.82
  -2  -8   3  365.43   26.82
  -2  -8   3  368.85   40.30
  -2  -8   3  258.85   34.16
  -2  -8   3  324.05   57.46
  -2  -8   3  377.17   40.11
  -2  -8   2  538.39   45.27
  -2  -8   2  614.86   44.47
  -2  -8   2  701.92   53.67
  -2  -8   2  797.93   58.57
  -2  -8   2  687.39   89.85
  -2  -8   1   29.74    7.21
  -2  -8   1   21.01    9.37
  -2  -8   1   26.38    8.23
  -2  -8   1   27.43   11.28
  -2  -8   1   -4.43   19.81
  -2  -8   0   69.80   18.06
  -2  -8   0   62.80   14.83
  -2  -8   0   60.36   14.76
  -2  -8   0  101.99   20.43
  -2  -8   0   46.89   31.02
  -2  -8  -1  140.69   26.95
  -2  -8  -1  181.84   27.26
  -2  -8  -1  129.28   48.10
  -2  -8  -1  129.26   21.16
  -2  -8  -2   -7.69    9.31
  -2  -8  -2   10.26    8.74
  -2  -8  -2    2.43    3.68
  -2  -8  -3  625.59   90.20
  -2  -8  -3  635.02   42.10
  -2  -8  -3  617.69   35.29
  -2  -8  -4  168.95   40.84
  -2  -8  -4  155.44   19.80
  -2  -8  -4  150.08   15.86
  -2  -8  -4  116.16   22.48
  -2  -8  -4  203.02   24.68
  -2  -8  -5  388.44   27.64
  -2  -8  -5  321.58   41.80
  -2  -8  -5  342.63   38.06
  -2  -8  -5  385.72   57.24
  -2  -8  -5  308.38   28.59
  -2  -8  -5  332.74   35.50
  -2  -8  -5  341.50   26.17
  -2  -8  -5  444.24   37.19
  -2  -8  -6    1.81    2.66
  -2  -8  -6   -2.74    4.08
  -2  -8  -6    3.42    2.80
  -2  -8  -6   -3.42    8.97
  -2  -8  -6    3.66    7.07
  -2  -8  -6   -8.56   11.21
  -2  -8  -6    4.07    3.86
  -2  -8  -6    0.81    5.04
  -2  -8  -6    8.60    2.04
  -2  -8  -6    5.79    4.73
  -2  -8  -7  104.25   15.35
  -2  -8  -7   83.39   19.09
  -2  -8  -7   91.14   14.92
  -2  -8  -7  117.80   20.53
  -2  -8  -7  119.56   15.24
  -2  -8  -7   74.15   11.13
  -2  -8  -7  126.77   17.91
  -2  -8  -8   80.18   10.60
  -2  -8  -8   85.13   14.29
  -2  -8  -8   97.00   19.56
  -2  -8  -8   96.05   16.98
  -2  -8  -8   92.11   13.17
  -2  -8  -8   79.52   12.29
  -2  -8  -8   96.95   14.86
  -2  -8  -9    9.09    4.38
  -2  -8  -9    2.92    3.24
  -2  -8  -9    1.12    2.33
  -2  -8  -9    3.83    3.47
  -2  -8  -9    2.89    6.43
  -2  -8  -9    3.60    4.01
  -2  -8  -9   11.03    5.61
  -2  -8 -10  128.27   13.40
  -2  -8 -10  135.20   18.35
  -2  -8 -10   94.80   14.21
  -2  -8 -10  115.03   15.88
  -2  -8 -10  121.92   14.10
  -2  -8 -10  108.35   19.36
  -2  -8 -11  226.86   22.58
  -2  -8 -11  208.72   20.33
  -2  -8 -11  210.85   25.35
  -2  -8 -11  176.83   14.78
  -2  -8 -11  188.43   17.44
  -2  -8 -11  213.08   20.79
  -2  -8 -12    2.12    3.25
  -2  -8 -12    3.10    2.44
  -2  -8 -12   -0.73    2.76
  -2  -8 -12    1.85    3.21
  -2  -8 -13  155.91   17.99
  -2  -8 -13  144.89   13.68
  -2  -8 -13  147.91   13.47
  -2  -8 -14    0.47    1.49
  -2  -8 -14    2.42    1.26
  -2  -8 -15    7.51    3.08
  -2  -9  12   26.35    4.20
   2   9 -12   28.90    4.64
  -2  -9  11   -1.24    2.47
   2   9 -11    0.25    1.64
  -2  -9  10   14.40    4.46
  -2  -9  10    6.09    2.50
   2   9 -10    9.63    3.16
  -2  -9   9    3.31    5.11
  -2  -9   9    1.80    2.06
   2   9  -9    4.91    1.55
   2   9  -9   12.60    4.37
   2   9  -8  117.99   13.96
  -2  -9   8  111.00   16.41
  -2  -9   8  106.38   15.52
  -2  -9   8  116.28   17.98
  -2  -9   8  135.92   32.88
  -2  -9   7  427.34   33.27
  -2  -9   7  397.97   33.84
   2   9  -7  459.43   30.10
  -2  -9   7  394.30   34.62
  -2  -9   7  451.54   58.28
   2   9  -6  142.40   16.22
  -2  -9   6  118.69   17.71
  -2  -9   6  159.11   20.93
  -2  -9   6  139.40   30.16
  -2  -9   5  580.35   48.31
  -2  -9   5  626.07   46.64
  -2  -9   5  664.43   44.43
  -2  -9   5  675.03   64.99
  -2  -9   5  734.96   67.05
   2   9  -5  618.87   62.36
  -2  -9   5  664.20   51.71
  -2  -9   4   -0.65    2.97
  -2  -9   4   -8.50    9.73
   2   9  -4    7.80    6.42
  -2  -9   4    6.24    4.06
  -2  -9   4   -4.68    8.93
  -2  -9   4    4.64    7.39
  -2  -9   3   12.42    5.94
  -2  -9   3   17.22    7.49
  -2  -9   3   15.45    5.21
  -2  -9   3   11.19    7.71
  -2  -9   3    7.89    7.58
  -2  -9   3   34.64   14.17
  -2  -9   3   16.58    9.96
  -2  -9   2   54.51    8.54
  -2  -9   2   31.39    9.74
  -2  -9   2   49.51    9.78
  -2  -9   2   37.98   12.54
  -2  -9   2   75.30   18.58
  -2  -9   2   62.28   17.48
  -2  -9   2   54.79   30.19
  -2  -9   1    1.61    5.38
  -2  -9   1   -0.71    4.26
  -2  -9   1    8.86    8.58
  -2  -9   1    2.87    3.77
  -2  -9   1    1.34    4.35
  -2  -9   1   14.51   23.76
  -2  -9   0  848.66   48.02
  -2  -9   0  930.03   48.27
  -2  -9   0 1112.20   74.54
  -2  -9   0  737.43   55.23
  -2  -9   0  745.14  114.85
  -2  -9   0 1004.44   48.81
  -2  -9  -1  376.28   39.60
  -2  -9  -1  493.95   48.06
  -2  -9  -1  458.79   31.56
  -2  -9  -2  246.08   33.90
  -2  -9  -2  277.22   23.73
  -2  -9  -3  190.86   23.34
  -2  -9  -3  215.52   52.67
  -2  -9  -3  241.64   26.14
  -2  -9  -3  238.37   21.87
  -2  -9  -4  101.19   24.79
  -2  -9  -4   68.58   13.43
  -2  -9  -4  109.81   24.76
  -2  -9  -4   71.47   18.57
  -2  -9  -4   58.70   20.67
  -2  -9  -4  116.72   18.52
  -2  -9  -4   90.77   13.46
  -2  -9  -5   30.72   14.99
  -2  -9  -5   35.80   11.52
  -2  -9  -5   38.88   12.07
  -2  -9  -5   57.11   19.24
  -2  -9  -5   44.16   10.28
  -2  -9  -5   46.21   10.82
  -2  -9  -6   24.17   10.31
   2   9   6   16.90   16.60
  -2  -9  -6   18.50    9.73
  -2  -9  -6   13.39    8.15
  -2  -9  -6   13.71    5.03
  -2  -9  -6   21.77    6.28
  -2  -9  -6   39.00    9.85
  -2  -9  -6   17.08    5.63
  -2  -9  -7  203.06   30.92
  -2  -9  -7  169.66   22.54
  -2  -9  -7  218.36   27.11
  -2  -9  -7  205.47   20.19
  -2  -9  -7  272.32   26.62
  -2  -9  -8  926.84   52.66
  -2  -9  -8  932.09   66.99
  -2  -9  -8  941.23   57.12
  -2  -9  -8  959.24   49.32
  -2  -9  -9   80.51   14.10
  -2  -9  -9   74.09   16.22
  -2  -9  -9   76.88   13.38
  -2  -9  -9   84.04   12.94
  -2  -9 -10   33.82   11.06
  -2  -9 -10   43.42    8.49
  -2  -9 -10   38.64    8.24
  -2  -9 -11   -0.50    2.89
  -2  -9 -11    3.81    3.63
  -2  -9 -11    6.59    4.44
  -2  -9 -12  103.64   11.65
  -2  -9 -12  119.20   12.97
  -2  -9 -13   91.35   12.62
  -2  -9 -13  104.73   10.16
  -2  -9 -14   62.51    8.58
  -2  -9 -14   59.12    6.85
  -2  -9 -14   58.42    6.17
  -2 -10  11   23.75    4.51
  -2 -10  11   19.43    4.94
   2  10 -11   20.91    3.89
  -2 -10  10    7.34    3.57
  -2 -10  10    8.61    3.73
   2  10 -10    8.63    2.91
  -2 -10   9   65.85   10.72
  -2 -10   9   75.52   11.47
   2  10  -9   71.71    9.06
  -2 -10   8   71.93   12.91
   2  10  -8   79.69   10.31
  -2 -10   8   53.92   10.28
   2  10  -8   75.50   10.12
  -2 -10   7  361.73   31.31
   2  10  -7  382.40   26.08
  -2 -10   7  352.16   30.17
  -2 -10   7  426.87   54.71
  -2 -10   7  454.88   58.06
   2  10  -7  369.56   24.44
  -2 -10   6  124.92   20.55
   2  10  -6  186.43   18.21
  -2 -10   6  172.54   21.01
  -2 -10   6  165.80   21.68
  -2 -10   6  167.01   33.17
  -2 -10   6  217.89   38.82
   2  10  -6  159.58   15.47
  -2 -10   5  501.68   42.21
  -2 -10   5  643.66   41.32
  -2 -10   5  645.57   64.06
   2  10  -5  546.89   58.44
  -2 -10   5  585.23   49.32
  -2 -10   5  728.23   70.93
  -2 -10   4    3.66    5.45
  -2 -10   4    7.23    3.31
  -2 -10   4    2.95    5.14
  -2 -10   4   -1.22    4.49
  -2 -10   4   15.59    6.32
   2  10  -4    9.85    5.36
  -2 -10   4   -1.71    6.94
  -2 -10   3   65.04   10.06
  -2 -10   3   57.11   13.74
  -2 -10   3   68.26   13.84
  -2 -10   3   56.37   24.11
  -2 -10   3  100.30   25.08
   2  10  -3   66.35   24.06
  -2 -10   3   45.65   15.37
  -2 -10   3   62.97   18.80
  -2 -10   2   75.19   13.41
  -2 -10   2   60.63   13.75
  -2 -10   2   65.00   22.11
   2  10  -2   52.76   18.92
  -2 -10   2   82.67   20.92
  -2 -10   2   98.98   25.19
  -2 -10   2   37.73   13.29
  -2 -10   1   -2.87    4.72
  -2 -10   1    0.75    4.09
   2  10  -1   -8.48   11.90
  -2 -10   1    4.95   20.90
  -2 -10   1   10.37   10.31
  -2 -10   1   -3.90    8.93
  -2 -10   1    5.83    2.31
  -2 -10   0  948.41   50.02
  -2 -10   0  857.07   62.09
  -2 -10   0  728.41   74.74
  -2 -10   0 1114.64   77.97
  -2 -10   0  756.35  113.15
  -2 -10   0 1175.11   56.89
  -2 -10  -1  397.89   78.51
  -2 -10  -1  513.06   49.43
  -2 -10  -1  445.90   56.54
  -2 -10  -2  331.16   22.03
  -2 -10  -2  261.31   38.82
  -2 -10  -2  285.41   37.50
  -2 -10  -2  366.67   29.26
  -2 -10  -3   43.84   14.14
  -2 -10  -3   83.01   33.52
  -2 -10  -3   89.45   24.20
   2  10   3   61.89   31.87
  -2 -10  -3   86.15   13.69
  -2 -10  -4  510.16   56.58
  -2 -10  -4  508.69   53.26
  -2 -10  -4  571.65   86.46
  -2 -10  -4  419.22   46.62
  -2 -10  -4  551.94   40.64
  -2 -10  -4  536.12   36.52
  -2 -10  -5   16.59   13.50
   2  10   5   42.50   19.83
  -2 -10  -5   -1.29    6.19
  -2 -10  -5   32.81   23.62
  -2 -10  -5   -4.22    7.94
  -2 -10  -5   13.88    5.28
  -2 -10  -5   13.97    6.91
  -2 -10  -6   59.63   17.26
  -2 -10  -6   62.03   14.66
   2  10   6  100.79   36.41
  -2 -10  -6   59.54   18.05
  -2 -10  -6   73.67   12.95
  -2 -10  -6   80.47   14.97
  -2 -10  -6   54.43   11.07
  -2 -10  -6   83.60   12.22
  -2 -10  -7  224.95   32.60
  -2 -10  -7  245.15   30.34
  -2 -10  -7  183.67   24.40
  -2 -10  -7  240.60   21.60
  -2 -10  -8  751.86   58.94
  -2 -10  -8  701.63   44.11
  -2 -10  -8  766.68   50.54
  -2 -10  -8  750.91   41.46
  -2 -10  -9   50.75   12.60
  -2 -10  -9   57.72   10.50
  -2 -10 -10    9.67    4.45
  -2 -10 -10   10.55    3.02
  -2 -10 -11   11.10    4.41
  -2 -10 -11    8.94    4.12
  -2 -10 -12  177.84   13.73
  -2 -10 -12  173.36   14.44
  -2 -10 -12  173.11   14.00
  -2 -10 -13   67.12    6.96
  -2 -11  10   36.36    5.61
  -2 -11  10   34.89    6.32
   2  11 -10   34.86    4.85
  -2 -11   9   14.68    4.02
  -2 -11   9   11.09    4.12
   2  11  -9   13.42    2.89
  -2 -11   8   90.42   12.54
   2  11  -8  109.53   10.68
  -2 -11   7  196.19   19.82
   2  11  -7  185.88   16.34
  -2 -11   7  168.40   19.70
   2  11  -7  195.28   15.46
  -2 -11   6   97.11   13.89
  -2 -11   6   90.43   15.06
   2  11  -6  104.07   12.99
   2  11  -6  111.68   12.03
   2  11  -5  378.76   26.94
  -2 -11   5  270.38   28.57
  -2 -11   5  371.66   27.62
  -2 -11   5  427.19   53.88
  -2 -11   5  420.21   52.50
  -2 -11   5  374.22   37.20
  -2 -11   4    2.45    2.92
  -2 -11   4    4.30    6.39
  -2 -11   4    1.76    5.46
   2  11  -4   -1.91    3.42
  -2 -11   4    3.58    5.65
  -2 -11   4    1.82    7.52
  -2 -11   4    8.98   12.06
  -2 -11   3   -3.50    6.44
  -2 -11   3   12.51    9.07
   2  11  -3    2.24   10.09
  -2 -11   3    5.06    9.09
  -2 -11   2   25.60    7.96
   2  11  -2   12.14    7.98
  -2 -11   2   42.10   13.80
  -2 -11   2   38.50   15.24
  -2 -11   1   19.38    7.80
  -2 -11   1    4.79   16.32
  -2 -11   1   20.09   12.98
   2  11  -1   11.01    5.82
  -2 -11   1   16.83   13.00
  -2 -11   1    7.12    3.96
  -2 -11   0  509.22   60.22
  -2 -11   0  513.29   88.48
  -2 -11   0  684.64   43.95
  -2 -11  -1  168.56   16.30
  -2 -11  -1  154.72   25.72
  -2 -11  -1  137.00   31.73
   2  11   1  152.94   44.61
  -2 -11  -1  113.21   33.06
  -2 -11  -1  174.28   20.48
   2  11   2  216.26   51.04
  -2 -11  -2  118.05   23.66
  -2 -11  -2  170.36   20.88
  -2 -11  -3  125.29   43.53
  -2 -11  -3  107.01   24.13
   2  11   3  133.96   42.69
  -2 -11  -3  137.76   32.08
  -2 -11  -3  131.24   17.61
  -2 -11  -4    6.58    7.87
  -2 -11  -4   20.77    7.63
  -2 -11  -4   26.84    6.69
  -2 -11  -5   48.56   16.80
  -2 -11  -5   69.96   20.89
  -2 -11  -5   56.06   17.52
   2  11   5   87.95   32.34
  -2 -11  -5   75.26   12.01
  -2 -11  -5   52.07   11.27
  -2 -11  -6  147.75   26.58
  -2 -11  -6  161.52   26.76
  -2 -11  -6  139.91   21.83
  -2 -11  -6  129.88   15.83
  -2 -11  -6  142.37   16.47
  -2 -11  -7   22.43    6.32
  -2 -11  -7   32.33    9.96
  -2 -11  -7   32.24   10.33
  -2 -11  -7   40.43    7.99
  -2 -11  -8  456.87   31.99
  -2 -11  -8  372.53   27.14
  -2 -11  -9    7.57    3.99
  -2 -11  -9    0.94    1.59
  -2 -11 -10   55.58    8.94
  -2 -11 -10   63.94    9.99
  -2 -11 -11   35.16    6.24
  -2 -11 -11   44.14    6.95
  -2 -11 -12   13.72    3.67
  -2 -11 -12   10.61    3.57
  -2 -11 -12   10.01    2.41
  -2 -12   9    2.64    2.22
  -2 -12   9   10.28    2.62
  -2 -12   8   41.66    6.17
  -2 -12   8   39.55    6.77
  -2 -12   7    3.23    4.44
  -2 -12   7    4.04    2.07
  -2 -12   6   11.96    5.03
   2  12  -6   11.80    2.93
  -2 -12   6    5.48    3.57
   2  12  -5   47.19    8.22
  -2 -12   5   62.46   12.52
  -2 -12   5   55.78    8.60
  -2 -12   5   72.26   15.28
  -2 -12   4   35.73    8.90
  -2 -12   4   38.45   12.67
  -2 -12   3  183.36   21.64
  -2 -12   3  211.18   30.65
  -2 -12   2  388.66   30.75
   2  12  -2  327.52   49.46
  -2 -12   2  417.43   48.66
  -2 -12   1    4.58    2.30
   2  12  -1   18.08   11.50
  -2 -12   1    6.96   11.63
  -2 -12   1    5.00    3.81
  -2 -12   0   68.43   10.83
  -2 -12   0   57.79   23.45
  -2 -12   0   63.80   13.62
  -2 -12  -1   94.97   11.53
  -2 -12  -1   72.31   26.45
   2  12   1  127.23   39.11
  -2 -12  -1  112.15   17.65
   2  12   2   -3.94   10.72
  -2 -12  -2    4.60    6.65
  -2 -12  -3  324.18   45.77
   2  12   3  339.25   65.93
  -2 -12  -3  266.82   26.38
  -2 -12  -4  146.42   28.63
   2  12   4  184.66   49.01
  -2 -12  -4  114.32   17.57
  -2 -12  -5  502.57   47.41
  -2 -12  -5  469.53   32.99
  -2 -12  -5  491.92   34.10
  -2 -12  -5  529.83   32.73
  -2 -12  -5  464.32   35.06
  -2 -12  -6   68.24   15.02
  -2 -12  -6   98.81   14.54
  -2 -12  -6   82.00   11.69
  -2 -12  -6   78.38   11.27
  -2 -12  -7   29.32    8.62
  -2 -12  -7   29.20    6.86
  -2 -12  -7   23.90    6.57
  -2 -12  -8   18.66    5.27
  -2 -12  -8   26.27    7.03
  -2 -12  -9   21.21    6.56
  -2 -12  -9   38.99    7.21
  -2 -12  -9   28.32    6.11
  -2 -12 -10  100.89   10.28
  -2 -12 -10  108.02   10.83
  -2 -12 -10   86.73    9.88
  -2 -12 -11  193.47   12.83
  -2 -12 -11  184.66   12.07
  -2 -13   7   15.80    4.30
  -2 -13   6   97.24   11.94
   2  13  -5    0.80    1.53
  -2 -13   5   40.51    7.94
  -2 -13   4   33.11    7.23
   2  13  -4   46.37    7.16
  -2 -13   4   41.13   10.71
  -2 -13   3  443.48   30.34
  -2 -13   3  432.25   40.71
  -2 -13   2  528.52   32.92
  -2 -13   2  500.88   48.96
  -2 -13   1    9.65    2.50
  -2 -13   1   30.11   13.52
  -2 -13   0    1.41    1.51
  -2 -13   0   10.35   15.98
  -2 -13   0   -4.43    4.72
  -2 -13  -1  124.46   29.03
  -2 -13  -1  127.20   18.73
  -2 -13  -2    7.78    7.33
  -2 -13  -3  545.67   56.59
  -2 -13  -3  473.60   36.46
  -2 -13  -4  241.57   32.91
  -2 -13  -4  201.70   20.54
  -2 -13  -4  188.19   18.48
  -2 -13  -5  634.98   49.49
  -2 -13  -5  607.80   33.18
  -2 -13  -5  566.53   33.51
  -2 -13  -6   24.90    8.67
  -2 -13  -6   17.96    4.97
  -2 -13  -6   34.45    7.27
  -2 -13  -7   43.57    7.00
  -2 -13  -7   39.73    7.57
  -2 -13  -8   -0.73    1.84
  -2 -13  -8   -4.73    3.90
  -2 -13  -8    5.60    2.71
  -2 -13  -9   33.90    5.43
  -2 -13  -9   32.33    5.60
  -2 -13  -9   28.57    5.02
  -2 -14   5   70.30    8.66
  -2 -14   5   76.20   10.26
  -2 -14   4   15.30    4.12
   2  14  -4   -0.34    0.94
  -2 -14   3  190.89   15.31
   2  14  -3  169.21   12.38
  -2 -14   2  146.88   13.08
  -2 -14   2  148.05   22.84
  -2 -14   1    0.51    0.62
  -2 -14   1   -6.98    6.98
  -2 -14   0   40.11   13.64
  -2 -14  -1   15.37   14.38
  -2 -14  -2   21.58    8.08
  -2 -14  -3  331.27   38.68
  -2 -14  -3  240.24   21.79
  -2 -14  -4   21.48    9.49
  -2 -14  -4   24.33    6.11
  -2 -14  -4   35.59    7.86
  -2 -14  -5   -0.91    1.68
  -2 -14  -5  213.88   15.46
  -2 -14  -6   20.15    4.52
  -2 -14  -7   -0.60    1.58
  -2 -14  -7    3.53    1.84
  -2 -15   0  301.68   25.09
  -2 -15  -1  108.77   14.06
  -2 -15  -2   84.36   10.70
   3 -12  -3  157.93   20.56
   3 -12  -3  152.47   18.26
   3 -12  -2    9.68    6.64
   3 -12  -2   13.70    8.54
   3 -12  -2    9.54    4.40
   3 -12  -1    8.68    6.61
   3 -12  -1    9.66    8.54
   3 -12  -1    8.91    4.17
   3 -12   0   47.20   11.27
   3 -12   0   54.07    9.14
   3 -12   1   -5.57    5.73
   3 -12   1   -0.23    1.77
   3 -12   1    2.34    2.59
   3 -12   2  113.54   24.86
   3 -12   2   79.47   11.05
   3 -12   3   76.47   19.51
   3 -12   3   61.95   10.47
   3 -12   4   -5.48    7.21
   3 -12   4    0.93    2.44
   3 -12   5  156.00   19.39
  -3  12  -5  124.76   11.77
   3 -12   5  155.82   15.22
   3 -12   6   -0.98    1.36
   3 -12   6   -6.06    4.56
   3 -12   6   -1.55    2.52
   3 -11  -6   76.00   10.87
   3 -11  -6   81.73    9.48
   3 -11  -5    2.08    4.21
   3 -11  -5    1.77    2.03
   3 -11  -5    5.07    3.26
   3 -11  -4    5.61    4.34
   3 -11  -4   14.29    4.74
   3 -11  -4   13.99    5.92
   3 -11  -3  528.64   47.95
   3 -11  -3  588.89   39.92
   3 -11  -2  180.18   28.21
   3 -11  -2  148.08   20.58
   3 -11  -1   23.09    4.91
   3 -11  -1   21.14   12.68
   3 -11  -1   29.98    7.71
   3 -11  -1   23.49    9.90
   3 -11   0   50.90   16.34
   3 -11   0   21.73    6.18
   3 -11   1  103.04   20.80
   3 -11   1  137.16   16.70
   3 -11   2   29.33   11.97
   3 -11   2   16.69    6.76
   3 -11   3  104.32   16.27
   3 -11   3   90.78   13.60
   3 -11   4   53.33    9.16
   3 -11   4   62.14   11.39
   3 -11   5  700.62   42.25
   3 -11   5  706.70   39.44
   3 -11   6   42.20    9.14
   3 -11   6   36.05    8.67
   3 -11   6   35.53   11.15
   3 -11   7   13.31    4.67
   3 -11   7    5.37    4.41
  -3  11  -7    1.67    1.24
   3 -11   7    9.33    5.13
   3 -11   8   24.35    6.13
   3 -11   8   15.81    4.58
   3 -11   8   14.96    3.20
   3 -11   9   66.81    8.72
   3 -11   9   79.90    9.30
   3 -10  -8   48.12    7.60
   3 -10  -8   56.61    6.92
   3 -10  -7   83.77   12.42
   3 -10  -7  102.17   11.85
   3 -10  -6   35.73    9.23
   3 -10  -6   28.60    7.91
   3 -10  -5   -0.72    3.14
   3 -10  -5   -3.59    4.67
   3 -10  -5    1.00    6.99
   3 -10  -5   -1.37    2.82
   3 -10  -4    4.46    3.66
   3 -10  -4    2.71    2.72
   3 -10  -3  597.72   58.31
   3 -10  -3  375.47   22.50
   3 -10  -3  578.65   48.45
   3 -10  -3  410.31   29.83
   3 -10  -2  235.00   37.32
   3 -10  -2  255.00   35.83
   3 -10  -2  152.11   13.89
   3 -10  -1    9.65   11.01
   3 -10  -1    9.00    9.32
   3 -10  -1    8.96    2.67
   3 -10   0   53.42   17.39
   3 -10   0   60.97   21.03
   3 -10   0   46.96    9.66
   3 -10   1  280.80   35.39
  -3  10  -1  234.94   47.44
   3 -10   1  237.51   22.66
   3 -10   2   16.36    5.34
   3 -10   2    4.42    3.76
   3 -10   3   37.77    9.56
   3 -10   3   25.42   11.01
   3 -10   3   41.40   16.65
   3 -10   3   42.11   13.16
   3 -10   4  142.92   27.92
   3 -10   4  144.07   24.89
   3 -10   4  135.16   19.57
   3 -10   4  122.65   17.70
   3 -10   5  941.70   57.53
   3 -10   5  963.34   65.42
   3 -10   6   17.45    7.04
   3 -10   6   16.97    8.61
  -3  10  -7   -0.34    1.84
   3 -10   7    6.37    5.13
   3 -10   7    3.22    3.21
  -3  10  -8    8.97    3.69
   3 -10   8    5.18    3.90
   3 -10   8    8.75    5.74
  -3  10  -9   88.88    8.96
   3 -10   9   89.09   12.57
  -3  10 -10  160.77   11.35
   3 -10  10  193.03   15.90
   3  -9  -9    0.84    0.76
   3  -9  -9   13.19    3.24
   3  -9  -8  106.79   13.47
   3  -9  -8  120.84   13.65
   3  -9  -7   14.10    6.01
   3  -9  -7   18.26    7.22
   3  -9  -6   71.70   12.53
   3  -9  -6  102.43   18.77
   3  -9  -6   99.58   16.63
   3  -9  -6   82.38   12.57
   3  -9  -5   41.04   14.62
   3  -9  -5   33.44   10.82
   3  -9  -5   33.04    9.07
   3  -9  -4   20.90   14.33
   3  -9  -4   26.65    9.43
   3  -9  -4   33.42    8.00
   3  -9  -3  117.40   28.77
   3  -9  -3   83.22   23.28
   3  -9  -3  140.10   45.22
  -3   9   3  126.68   35.62
   3  -9  -3   96.54   14.36
   3  -9  -3   95.52   11.35
   3  -9  -3  102.29   21.50
   3  -9  -2   38.51   19.37
   3  -9  -2   25.90    8.43
   3  -9  -2   44.03   39.72
  -3   9   2   38.74   19.32
   3  -9  -2   30.16   11.98
   3  -9  -2   33.82   18.90
   3  -9  -1   77.19   41.55
   3  -9  -1   95.08   26.68
   3  -9  -1   21.48   45.27
  -3   9   1   68.70   30.45
   3  -9  -1   87.70   26.41
   3  -9  -1   80.69   22.72
   3  -9   0  419.09   53.81
  -3   9   0  321.93   63.55
   3  -9   0  404.33   50.84
   3  -9   0  500.63   64.48
   3  -9   1   20.93    9.99
   3  -9   1    9.73   27.66
   3  -9   1   75.10   89.72
  -3   9  -1   22.86   14.23
   3  -9   1   60.88   29.05
   3  -9   1   35.02   13.61
   3  -9   2  278.60   27.94
   3  -9   2  514.47   86.52
   3  -9   2  283.51   44.02
   3  -9   2  296.12   37.28
   3  -9   2  506.84  165.98
   3  -9   3   88.41   20.41
   3  -9   3  140.41   39.59
   3  -9   3  163.70   81.66
  -3   9  -3   62.73   24.54
   3  -9   3  109.02   21.55
   3  -9   4   10.98   10.33
   3  -9   4   19.22   10.78
  -3   9  -4   32.90   17.72
   3  -9   4    9.77    7.35
   3  -9   5  481.15   53.29
   3  -9   5  363.47   39.59
   3  -9   5  433.05   88.64
  -3   9  -5  281.51   43.39
  -3   9  -5  327.60   23.80
   3  -9   6    3.89    8.10
   3  -9   6    4.64    8.35
   3  -9   6   20.11   21.63
  -3   9  -6    3.23    6.99
  -3   9  -6    1.89    2.58
  -3   9  -7   33.94    7.33
   3  -9   7   45.91   14.78
   3  -9   7   52.71   12.25
  -3   9  -8  183.76   16.74
   3  -9   8  208.60   26.22
  -3   9  -9   11.15    3.94
   3  -9   9    7.16    4.01
  -3   9 -10  246.63   17.33
   3  -9  10  242.09   22.64
   3  -9  10  305.36   23.97
   3  -9  10  243.30   19.12
  -3   9 -11    8.44    2.51
   3  -9  11   10.85    3.71
   3  -9  11    3.34    2.77
   3  -9  11    1.65    2.84
  -3   9 -12   15.17    3.10
   3  -9  12   21.73    4.67
   3  -9  12   16.15    4.16
   3  -8 -11    0.20    1.35
   3  -8 -10  172.95   12.12
   3  -8 -10   -0.17    0.57
   3  -8  -9  234.63   17.42
   3  -8  -9  220.69   16.27
   3  -8  -8   36.98    7.26
   3  -8  -8   26.39    8.32
   3  -8  -7   82.82   12.24
   3  -8  -7   71.56   14.00
   3  -8  -7   81.73   15.86
   3  -8  -6  237.92   22.17
   3  -8  -6  387.71   39.51
   3  -8  -6  294.36   25.09
   3  -8  -6  364.39   34.27
   3  -8  -5  193.08   19.54
   3  -8  -5  211.18   28.22
   3  -8  -5  218.70   21.53
   3  -8  -4   96.43   22.64
   3  -8  -4   92.93   23.88
   3  -8  -4   80.04   29.74
  -3   8   4  114.67   30.02
   3  -8  -4   93.29   11.61
   3  -8  -4   70.98   17.56
   3  -8  -4   80.22   13.20
   3  -8  -3    5.79   11.74
   3  -8  -3    1.75    6.42
  -3   8   3    8.07   11.94
   3  -8  -3   24.54   38.19
   3  -8  -3    6.52    3.04
   3  -8  -3    1.20    3.31
   3  -8  -3   -1.50   11.53
   3  -8  -2  349.12   67.98
   3  -8  -2  343.13   45.71
   3  -8  -2  409.76  114.86
  -3   8   2  370.24   59.82
   3  -8  -2  291.97   25.16
   3  -8  -1  -28.64   39.60
  -3   8   1   23.81   19.61
   3  -8  -1    4.60   19.54
   3  -8  -1   23.52   14.56
  -3   8   0  502.24   79.74
   3  -8   0  611.36   59.18
   3  -8   1  186.17  113.64
  -3   8  -1  121.98   41.31
   3  -8   1  385.34  101.97
   3  -8   2 1526.40  171.17
   3  -8   2  811.38   66.30
   3  -8   2 1253.83  295.99
   3  -8   3   90.71   37.44
   3  -8   3   33.78   24.45
  -3   8  -3   54.72   27.00
   3  -8   3   68.25   18.59
   3  -8   4  236.69   28.80
  -3   8  -4  242.89   46.60
   3  -8   4  292.85   85.97
   3  -8   4  277.11   51.16
  -3   8  -4  224.93   19.45
   3  -8   5   -6.40   23.98
   3  -8   5    3.70    8.87
  -3   8  -5    2.10    5.36
   3  -8   5   19.08   15.93
   3  -8   6   74.82   21.84
   3  -8   6  100.85   44.00
   3  -8   6   77.43   23.42
  -3   8  -6   78.72   23.15
   3  -8   7  232.17   31.61
   3  -8   7  273.11   46.53
  -3   8  -7  181.37   31.88
   3  -8   8  871.46   85.50
   3  -8   9  129.22   21.61
   3  -8   9  142.53   20.89
  -3   8 -10  184.68   17.66
   3  -8  10  203.31   23.58
   3  -8  10  205.35   21.70
  -3   8 -11   67.45    8.62
   3  -8  11   64.99   10.82
   3  -8  11   61.89   11.71
  -3   8 -12   90.69    8.81
   3  -8  12   86.39   11.62
   3  -8  12   73.82   10.12
  -3   8 -13   38.63    4.94
   3  -8  13   54.32    7.17
   3  -8  13   45.25    6.93
   3  -8  13   45.79    6.37
   3  -7 -12   -0.18    1.26
   3  -7 -12    1.86    1.13
   3  -7 -11   11.81    3.38
   3  -7 -11   12.18    4.20
   3  -7 -10   94.72   10.73
   3  -7 -10   85.60   10.67
   3  -7 -10   87.20   13.12
   3  -7  -9  120.74   13.39
   3  -7  -9  113.20   14.49
   3  -7  -9  113.84   14.29
   3  -7  -9  103.02   15.85
   3  -7  -9  106.45   12.09
   3  -7  -8   24.82    6.02
   3  -7  -8   19.07    7.49
   3  -7  -8   17.07    6.85
   3  -7  -7   28.55    8.01
   3  -7  -7   19.64    5.41
   3  -7  -7   10.17    8.76
   3  -7  -6  287.47   24.36
   3  -7  -6  257.54   38.19
   3  -7  -6  306.15   25.92
   3  -7  -6  266.78   29.74
   3  -7  -6  249.81   29.78
   3  -7  -6  274.97   23.92
   3  -7  -5  361.61   36.50
   3  -7  -5  445.20   30.63
   3  -7  -5  465.07   52.05
   3  -7  -5  456.32   71.26
   3  -7  -5  436.10   37.17
   3  -7  -5  384.72   40.76
   3  -7  -5  458.61   31.16
   3  -7  -4    3.03    5.97
  -3   7   4   26.25   15.21
   3  -7  -4   -4.75   10.30
   3  -7  -4    1.63    4.41
   3  -7  -4    2.21    3.54
   3  -7  -4   11.68    9.23
   3  -7  -3   -4.54   11.85
   3  -7  -3   28.10   23.14
  -3   7   3   14.93    6.61
   3  -7  -3   19.21    4.95
   3  -7  -3   14.64    5.56
   3  -7  -2  577.56  144.01
  -3   7   2  353.77   60.31
   3  -7  -2  403.39   46.24
   3  -7  -2  465.59   77.67
   3  -7  -1   34.43   83.25
  -3   7   1   26.95   16.26
   3  -7  -1   17.03   27.42
   3  -7   0 1888.97  232.25
  -3   7   0  647.31   93.29
  -3   7  -1  304.49   60.65
   3  -7   1  639.63  139.68
   3  -7   2 1641.07  209.56
   3  -7   2 1900.69  338.81
   3  -7   3  127.55   70.32
  -3   7  -3   16.53   10.97
   3  -7   3   82.41   38.47
   3  -7   4  530.45   77.26
   3  -7   4  430.28   49.50
  -3   7  -4  395.85   61.85
   3  -7   4  449.70   40.51
  -3   7  -5   19.42    4.43
   3  -7   5    3.29    9.49
   3  -7   5    7.30   33.41
   3  -7   5   51.69   24.02
   3  -7   6    5.38    8.06
   3  -7   6   21.59   24.69
  -3   7  -6    1.84    5.75
   3  -7   6    9.14   17.70
   3  -7   7  715.43   62.15
   3  -7   7  726.81   72.48
  -3   7  -7  571.44   58.71
   3  -7   7  771.17  108.05
   3  -7   8 1020.92   93.11
  -3   7  -8 1071.63   51.34
   3  -7   9  121.65   30.63
  -3   7  -9  107.04   13.65
   3  -7  10  135.83   23.04
   3  -7  10   82.90   22.35
   3  -7  11   30.95    9.37
   3  -7  11   28.35    7.92
  -3   7 -12   30.95    5.87
   3  -7  12   45.89   10.24
   3  -7  12   37.55    8.06
   3  -7  13   92.49   10.87
   3  -7  13   85.58   11.09
  -3   7 -14   17.20    3.29
   3  -7  14   19.55    4.42
   3  -7  14   19.48    4.39
   3  -7  14   24.12    4.15
   3  -6 -12   61.54    7.04
   3  -6 -12   38.40    6.97
   3  -6 -12   49.34    5.72
   3  -6 -11   37.86    6.49
   3  -6 -11   31.10    7.62
   3  -6 -10   27.66    6.53
   3  -6 -10   27.19    5.23
   3  -6 -10   22.41    6.91
   3  -6 -10   21.34    4.60
   3  -6  -9    3.88    2.65
   3  -6  -9   -1.76    3.48
   3  -6  -9    0.87    2.28
   3  -6  -9    7.01    4.50
   3  -6  -9   -1.63    4.45
   3  -6  -8   67.62   11.28
   3  -6  -8   43.56   16.42
   3  -6  -8   60.30   11.61
   3  -6  -8   73.86   13.41
   3  -6  -8   50.89   13.15
   3  -6  -7  142.61   16.44
   3  -6  -7  109.93   15.80
   3  -6  -7  110.42   19.39
   3  -6  -7   95.51   17.07
   3  -6  -6   19.21    6.44
   3  -6  -6   11.35    9.31
   3  -6  -6   26.56    7.81
   3  -6  -6   15.43    5.80
   3  -6  -6   11.66    6.50
   3  -6  -5   41.54    9.66
   3  -6  -5   29.99   10.83
   3  -6  -5   29.53   11.60
   3  -6  -5   14.16    9.84
  -3   6   5   45.46   15.99
   3  -6  -5   42.69   12.39
   3  -6  -5   38.24    8.20
   3  -6  -5   36.72   12.78
   3  -6  -4   16.51    5.23
   3  -6  -4   16.76    7.31
   3  -6  -4   16.56    8.77
   3  -6  -4   25.35   19.66
  -3   6   4   15.59    9.28
   3  -6  -4   25.76    7.42
   3  -6  -4   18.79    4.43
   3  -6  -3  259.47   45.01
   3  -6  -3  283.52   88.57
  -3   6   3  322.10   49.12
   3  -6  -3  315.48   23.42
   3  -6  -3  306.74   28.26
   3  -6  -2    3.83   14.49
   3  -6  -2  -11.44   70.19
  -3   6   2   -2.59    6.86
   3  -6  -2    1.83    2.94
  -3   6   1   18.96   17.32
   3  -6  -1   87.90  101.70
   3  -6  -1  -17.83   25.40
  -3   6   0  242.35   54.89
   3  -6   0  471.11  121.75
   3  -6   1   24.11   93.47
  -3   6  -1   43.66   21.87
   3  -6   1   41.19   52.20
   3  -6   2  259.42  178.20
   3  -6   2  678.23  122.26
   3  -6   3   78.60   20.79
   3  -6   3   39.08   31.78
  -3   6  -3   67.65   25.54
   3  -6   3  124.90   49.79
   3  -6   4    9.53   43.97
   3  -6   4   -2.68    7.78
  -3   6  -4    5.13    9.44
   3  -6   4   -3.27   14.14
   3  -6   5  483.70   69.12
   3  -6   5  505.74   51.25
  -3   6  -5  450.38   58.14
   3  -6   5  605.15  126.81
  -3   6  -5  590.99   33.09
   3  -6   6    3.16    7.65
  -3   6  -6    1.79    4.95
   3  -6   6   13.83   15.04
  -3   6  -6    0.52    4.02
   3  -6   7  181.91   35.32
   3  -6   7  163.35   49.97
  -3   6  -7  147.21   28.18
  -3   6  -7  211.18   20.64
   3  -6   7  204.04   34.53
  -3   6  -8  150.26   28.15
   3  -6   8  166.47   35.32
  -3   6  -8  154.84   18.26
   3  -6   9    9.87   10.14
  -3   6  -9   15.61    4.23
   3  -6  10  233.37   44.34
  -3   6 -10  251.29   21.86
   3  -6  11   38.76   13.55
   3  -6  11   17.49   11.98
  -3   6 -11   29.02    7.06
   3  -6  12   45.79    9.24
   3  -6  12   44.36   11.16
  -3   6 -13  209.03   15.91
   3  -6  13  235.70   19.12
   3  -6  13  253.42   21.83
  -3   6 -14    0.46    1.54
   3  -6  14   -1.26    2.19
   3  -6  14    1.06    1.87
  -3   6 -15   64.74    6.18
   3  -5 -13   71.36    7.42
   3  -5 -13   55.66    7.34
   3  -5 -12  107.84   10.74
   3  -5 -12   83.00   10.73
   3  -5 -12   92.54    8.70
   3  -5 -11   84.47   10.61
   3  -5 -11   85.90   13.00
   3  -5 -10  197.43   18.41
   3  -5 -10  193.50   21.86
   3  -5 -10  187.78   18.14
   3  -5  -9   28.99    8.80
   3  -5  -9   53.50    9.65
   3  -5  -9   46.45   10.25
   3  -5  -9   48.53   12.62
   3  -5  -9   48.83    8.93
   3  -5  -8  253.93   25.32
   3  -5  -8  274.71   23.37
   3  -5  -8  182.64   30.96
   3  -5  -8  210.89   23.13
   3  -5  -8  226.61   27.33
   3  -5  -8  218.96   24.99
   3  -5  -7  330.92   25.75
   3  -5  -7  318.32   29.18
   3  -5  -7  192.58   21.00
   3  -5  -7  273.97   26.45
   3  -5  -7  271.96   30.18
   3  -5  -7  221.56   26.90
   3  -5  -6   62.69   13.01
   3  -5  -6   73.24   12.14
   3  -5  -6   54.14   15.43
   3  -5  -6   60.84   12.18
   3  -5  -6   60.49   14.07
   3  -5  -6   55.63   14.77
   3  -5  -6   67.63   11.17
   3  -5  -5   42.41   10.65
   3  -5  -5   44.82   10.24
   3  -5  -5   40.68   14.16
   3  -5  -5   28.80   12.31
  -3   5   5   63.73   18.61
   3  -5  -5   46.00   10.99
   3  -5  -5   47.44    9.11
   3  -5  -4    4.07    5.09
   3  -5  -4    5.02    2.64
   3  -5  -4    1.70   12.62
   3  -5  -4    2.77    5.98
   3  -5  -4    5.09   17.87
  -3   5   4   -5.05    5.51
   3  -5  -4    0.68    3.57
   3  -5  -4    1.84    1.89
   3  -5  -3 1083.08   54.89
   3  -5  -3  942.84   91.62
   3  -5  -3 1245.00   75.26
   3  -5  -3 1091.61  171.04
  -3   5   3 1163.68   89.19
   3  -5  -3 1057.78   53.81
  -3   5   2  608.63   67.17
   3  -5  -2  614.62  152.41
  -3   5   1  165.76   40.76
  -3   5   0   96.02   33.85
  -3   5  -1 1396.96  144.89
   3  -5   2    3.35    4.54
   3  -5   3  134.08   23.39
  -3   5  -3  183.52   44.16
   3  -5   4  739.33   56.64
  -3   5  -4  858.07   84.26
  -3   5  -4  744.35   36.51
   3  -5   5 1823.90  142.59
  -3   5  -5 2260.99   80.87
   3  -5   5 2247.15  250.64
   3  -5   5 2207.56  109.83
  -3   5  -5 2128.29  130.08
  -3   5  -6  111.30   14.51
   3  -5   6   62.62   21.25
   3  -5   6  118.16   25.80
   3  -5   6  144.78   59.27
  -3   5  -6  109.87   25.48
  -3   5  -7    7.10    4.71
   3  -5   7    5.07    8.79
   3  -5   7    4.67   13.01
  -3   5  -7    1.46    8.76
  -3   5  -8   35.30    9.51
  -3   5  -8   36.89   14.26
  -3   5  -9  284.03   25.90
  -3   5  -9  222.60   18.69
  -3   5 -10  480.20   34.13
  -3   5 -10  393.21   25.24
  -3   5 -11  360.24   25.71
  -3   5 -11  338.93   21.87
  -3   5 -12  304.90   22.03
  -3   5 -12  283.61   17.85
  -3   5 -13  371.24   23.33
   3  -5  13  409.28   28.40
   3  -5  13  340.15   28.81
  -3   5 -14   13.50    3.71
   3  -5  14   11.99    3.24
   3  -5  14   14.13    4.16
  -3   5 -14    7.03    2.39
  -3   5 -15    8.47    2.74
   3  -4 -13   18.07    4.14
   3  -4 -13   19.36    5.19
   3  -4 -12   84.50    9.95
   3  -4 -12   88.90   11.98
   3  -4 -12   88.25    9.02
   3  -4 -11   64.71    7.54
   3  -4 -11   81.63   10.92
   3  -4 -11   72.36   12.33
   3  -4 -10  127.62   12.33
   3  -4 -10  128.33   21.99
   3  -4 -10  136.34   14.82
   3  -4 -10  138.08   16.52
   3  -4 -10  144.83   19.96
   3  -4 -10  131.91   15.34
   3  -4  -9   52.78    9.09
   3  -4  -9   50.65    8.34
   3  -4  -9   65.38   16.69
   3  -4  -9   58.45   10.33
   3  -4  -9   53.98   10.99
   3  -4  -9   59.09   13.48
   3  -4  -8  209.21   20.45
   3  -4  -8  158.19   27.85
   3  -4  -8  208.73   19.73
   3  -4  -8  187.02   20.45
   3  -4  -8  202.88   23.97
   3  -4  -8  171.40   22.25
   3  -4  -8  197.18   25.23
   3  -4  -7  106.54   16.58
   3  -4  -7  101.47   14.44
   3  -4  -7   95.48   16.06
   3  -4  -7  102.73   18.13
   3  -4  -7   75.64   15.78
   3  -4  -6   48.00   11.42
   3  -4  -6   62.43   10.79
   3  -4  -6   49.84   14.16
   3  -4  -6   22.74    5.13
   3  -4  -6   44.06   10.42
   3  -4  -6   67.50   16.11
   3  -4  -6   36.33    7.62
   3  -4  -6   45.39   12.22
   3  -4  -5   10.50    4.55
   3  -4  -5   15.84    6.62
   3  -4  -5   10.65    5.75
  -3   4   5   10.89    8.89
   3  -4  -5    3.46   21.97
   3  -4  -5   24.35    8.79
   3  -4  -5    9.89    4.34
   3  -4  -4   12.81    5.79
   3  -4  -4   -4.86   33.90
  -3   4   4   20.18    9.18
   3  -4  -4   12.09    6.26
  -3   4   3 1099.21   81.29
  -3   4   2  533.61   58.67
  -3   4   1  130.40   32.73
  -3   4   0  124.96   37.95
  -3   4  -1  915.97  108.25
   3  -4   2   71.44   16.08
   3  -4   3   70.83   14.85
   3  -4   3   69.58    9.48
  -3   4  -3   84.48   26.91
   3  -4   4  536.92   43.28
   3  -4   4  532.87   30.97
  -3   4  -4  548.19   29.40
   3  -4   5 2514.00  119.11
  -3   4  -5 2721.17  146.78
  -3   4  -5 2730.71   97.02
  -3   4  -6   14.94   10.92
  -3   4  -6   26.30    8.91
  -3   4  -6    3.79    3.67
   3  -4   7   59.15   32.37
  -3   4  -7   46.40   15.29
  -3   4  -7   42.85   11.09
  -3   4  -7   39.97    8.97
  -3   4  -8   30.07    6.53
  -3   4  -8   23.05    8.10
  -3   4  -8   20.99    9.79
  -3   4  -8   21.37    7.74
  -3   4  -9  140.12   19.00
  -3   4  -9  127.72   20.52
  -3   4 -10  464.36   39.97
  -3   4 -10  497.46   30.74
  -3   4 -11  404.62   27.58
  -3   4 -11  357.48   24.46
   3  -4  12  365.82   35.87
  -3   4 -12  335.68   21.70
  -3   4 -13  361.34   23.12
   3  -4  13  380.80   28.80
   3  -4  13  386.86   31.17
  -3   4 -13  322.70   19.85
  -3   4 -14   26.36    5.25
   3  -4  14   22.11    5.86
  -3   4 -14   27.38    4.86
  -3   4 -15    1.14    1.13
  -3   4 -15    0.19    1.75
  -3   4 -16    3.06    1.34
  -3   4 -16    1.15    1.31
   3  -3 -14   25.41    4.22
   3  -3 -14   18.90    3.98
   3  -3 -13   47.78    8.05
   3  -3 -12   27.81    4.82
   3  -3 -12   28.79    6.21
   3  -3 -12   27.22    6.59
   3  -3 -12    8.16    3.31
   3  -3 -11   31.07    6.23
   3  -3 -11   15.53    4.83
   3  -3 -11   19.84    5.67
   3  -3 -11   26.44    6.01
   3  -3 -11   32.77    8.90
   3  -3 -10   11.94    4.10
   3  -3 -10   13.15    3.10
   3  -3 -10   19.19    9.67
   3  -3 -10   16.97    6.60
   3  -3 -10    9.68    4.12
   3  -3 -10   12.30    4.36
   3  -3 -10   10.73    5.24
   3  -3 -10   13.13    5.89
   3  -3  -9   25.20    6.94
   3  -3  -9   26.46    7.98
   3  -3  -9   28.49   11.86
   3  -3  -9   16.20    5.45
   3  -3  -9   20.57    6.82
   3  -3  -9   25.28   10.11
   3  -3  -9   23.74    8.49
   3  -3  -9   23.89   10.07
   3  -3  -8   60.19   10.26
   3  -3  -8   69.62   12.36
   3  -3  -8   65.12   12.62
   3  -3  -8   69.58   16.35
   3  -3  -8   57.76   12.78
   3  -3  -8   50.27   13.42
   3  -3  -8   76.20   14.31
   3  -3  -8   67.57   13.63
   3  -3  -7   17.33    5.10
   3  -3  -7    2.41    3.25
   3  -3  -7    0.89    5.94
   3  -3  -7   13.28    8.53
   3  -3  -7    0.86    6.13
   3  -3  -6  133.11   17.94
   3  -3  -6  173.62   18.59
   3  -3  -6  127.91   24.45
   3  -3  -6  160.04   20.18
   3  -3  -6  103.88   16.65
   3  -3  -6  127.36   18.65
   3  -3  -6  112.12   18.41
   3  -3  -5   30.70    8.01
   3  -3  -5   59.97   16.90
   3  -3  -5   41.51   20.59
  -3   3   5   58.37   14.44
   3  -3  -5   45.32   10.56
  -3   3   4  520.41   48.35
   3  -3  -4  588.16   48.10
  -3   3   3  255.82   34.89
  -3   3   2   15.83    5.38
  -3   3   1    1.96   14.04
  -3   3   0  588.23   69.89
  -3   3  -1  154.76   37.52
   3  -3   2  826.61   49.52
   3  -3   3   10.21    2.76
   3  -3   3   27.25    8.55
  -3   3  -3   18.94   12.20
   3  -3   4   75.53   15.84
  -3   3  -4   77.53   22.35
  -3   3  -4   73.52    9.13
  -3   3  -4   83.86   13.47
  -3   3  -4   77.41    9.89
  -3   3  -5  659.40   61.66
  -3   3  -5  684.13   36.77
  -3   3  -6  314.48   30.79
  -3   3  -6  241.30   33.97
  -3   3  -6  266.50   23.38
  -3   3  -7  248.04   31.75
  -3   3  -7  292.58   30.77
  -3   3  -7  212.72   22.20
  -3   3  -8  348.43   35.16
  -3   3  -8  401.64   37.52
  -3   3  -8  378.98   32.39
  -3   3  -9    3.05    2.50
  -3   3  -9    8.57    3.95
  -3   3  -9    4.04    3.27
  -3   3 -10  275.04   22.45
  -3   3 -10  256.73   21.33
  -3   3 -11   14.32    4.63
  -3   3 -12    8.21    3.92
   3  -3  12   19.63    7.86
  -3   3 -12   10.95    3.64
  -3   3 -13  190.70   16.82
  -3   3 -13  212.96   17.13
   3  -3  13  246.82   23.12
   3  -3  13  217.08   22.99
  -3   3 -13  198.44   15.75
  -3   3 -14    3.53    1.63
  -3   3 -14    2.23    2.02
  -3   3 -15  191.09   13.08
  -3   3 -15  162.09   12.40
  -3   3 -16   24.04    3.78
  -3   3 -16   27.15    4.19
   3  -2 -14   28.85    4.72
   3  -2 -14   32.73    5.65
   3  -2 -13  265.61   15.55
   3  -2 -13  295.36   18.85
   3  -2 -13  294.65   18.76
   3  -2 -13  300.47   21.11
   3  -2 -12    0.58    1.76
   3  -2 -12   -0.40    1.49
   3  -2 -12    4.82    3.40
   3  -2 -12    0.50    2.81
   3  -2 -12    0.44    1.86
   3  -2 -11    1.12    2.72
   3  -2 -11    0.48    2.04
   3  -2 -11    5.31    3.80
   3  -2 -10  182.22   18.21
   3  -2 -10  169.81   16.82
   3  -2 -10  148.44   16.79
   3  -2 -10  185.04   17.21
   3  -2 -10  153.40   19.14
   3  -2  -9  308.48   33.98
   3  -2  -9  303.42   25.11
   3  -2  -9  312.57   27.08
   3  -2  -9  251.18   22.09
   3  -2  -9  262.83   24.32
   3  -2  -9  297.55   28.03
   3  -2  -9  307.34   25.79
   3  -2  -8   62.88   11.42
   3  -2  -8   47.79   10.77
   3  -2  -8   73.69   14.22
   3  -2  -8   79.05   18.52
   3  -2  -8   56.51   11.80
   3  -2  -8   60.79   13.62
   3  -2  -8   49.26   12.11
   3  -2  -8   43.91    9.92
   3  -2  -7  127.74   15.97
   3  -2  -7  107.98   17.82
   3  -2  -7   90.92   15.74
   3  -2  -7   69.79   13.69
   3  -2  -6  933.00   54.25
   3  -2  -6  876.64   66.35
   3  -2  -5  680.04   40.87
  -3   2   5  661.59   48.11
   3  -2  -5  676.99   53.41
  -3   2   4  181.29   26.02
   3  -2  -4  189.43   24.99
  -3   2   3    9.54    7.09
  -3   2   2  922.37   70.33
  -3   2   1    6.65   10.36
  -3   2   0 1187.39   89.96
   3  -2   0 1653.53  121.02
  -3   2  -1  920.93   80.82
   3  -2   1 1374.35  108.30
   3  -2   2 3219.56  107.17
  -3   2  -2 2832.98   78.63
   3  -2   3   79.46   12.01
  -3   2  -3   87.04   24.08
  -3   2  -3   70.09    9.78
   3  -2   3  104.61   28.14
  -3   2  -4  668.91   59.65
  -3   2  -4  583.32   36.30
   3  -2   4  569.80   64.36
  -3   2  -5   -1.26    4.54
  -3   2  -5    2.00    2.46
  -3   2  -5    7.58    4.27
  -3   2  -5   -2.33    2.66
   3  -2   5    1.50    6.36
  -3   2  -6  128.44   18.78
  -3   2  -6  127.84   22.03
  -3   2  -6  117.85   14.86
  -3   2  -7  708.01   50.71
  -3   2  -7  614.56   42.64
  -3   2  -8 1907.99   86.68
  -3   2  -8 2270.68  100.51
  -3   2  -9  396.52   28.24
  -3   2  -9  376.07   36.71
  -3   2 -10  731.47   40.42
  -3   2 -10  657.28   37.57
  -3   2 -10  636.20   35.93
  -3   2 -10  634.45   34.04
  -3   2 -11  157.61   16.27
  -3   2 -11  138.70   15.67
  -3   2 -11  129.18   12.81
  -3   2 -11  150.67   15.97
  -3   2 -12  111.04   12.93
   3  -2  12  108.61   18.15
  -3   2 -12   94.99   12.35
  -3   2 -13  136.66   14.18
  -3   2 -13  154.00   14.65
  -3   2 -13  128.42   13.10
  -3   2 -14   63.47    8.39
  -3   2 -15  708.75   30.02
  -3   2 -15  676.64   29.55
  -3   2 -16  276.07   16.26
  -3   2 -17    1.77    0.73
   3  -1 -14   28.22    4.68
   3  -1 -14   33.59    6.07
   3  -1 -13   94.38    9.32
   3  -1 -13   99.97   10.49
   3  -1 -13  104.11   10.71
   3  -1 -13   97.93   11.94
   3  -1 -13   94.58   10.54
   3  -1 -12   14.81    4.79
   3  -1 -12   12.51    5.26
   3  -1 -12   13.80    3.82
   3  -1 -12   21.84    6.24
   3  -1 -12   15.74    5.30
   3  -1 -11    4.67    2.22
   3  -1 -11    5.75    4.22
   3  -1 -11    3.89    1.64
   3  -1 -11    6.42    2.46
   3  -1 -11    7.79    5.95
   3  -1 -10  148.25   16.13
   3  -1 -10  133.11   16.23
   3  -1 -10  137.89   15.96
   3  -1 -10  131.21   14.89
   3  -1 -10  135.09   17.63
   3  -1 -10  160.50   20.22
   3  -1  -9  345.45   28.21
   3  -1  -9  282.99   29.74
   3  -1  -9  359.21   29.13
   3  -1  -9  303.74   25.41
   3  -1  -9  317.53   27.00
   3  -1  -9  304.95   23.13
   3  -1  -8   19.47    7.15
   3  -1  -8   17.69    8.83
   3  -1  -8   11.76    3.12
   3  -1  -8   10.96    4.86
   3  -1  -8   18.85    9.18
   3  -1  -8   15.20    4.39
   3  -1  -7   12.27    6.00
   3  -1  -7   19.89    9.36
   3  -1  -7    3.99    3.58
   3  -1  -7    8.51    4.84
   3  -1  -7    5.98    4.52
   3  -1  -6  616.87   41.30
   3  -1  -5  515.52   42.30
  -3   1   5  505.39   36.85
   3  -1  -5  500.82   33.74
   3  -1  -4  304.45   30.84
  -3   1   4  242.96   27.59
  -3   1   3   21.27    9.48
   3  -1  -2  979.03   73.86
  -3   1   2  977.76   68.08
  -3   1   1  389.31   43.66
   3  -1   0 1949.60  103.67
  -3   1   0 1607.18   97.22
   3  -1   1  328.37   40.27
  -3   1  -1  256.82   37.15
   3  -1   2 2879.87  133.53
   3  -1   2 2465.92   86.63
   3  -1   3  117.50   24.52
  -3   1  -3  153.55   27.51
   3  -1   4  751.52   60.81
  -3   1  -4  766.01   38.58
  -3   1  -4  826.15   62.46
  -3   1  -4  695.29   38.80
   3  -1   5    4.38    7.01
  -3   1  -5    5.28    4.90
  -3   1  -5    8.98    4.07
  -3   1  -5    1.98    2.64
   3  -1   6  128.24   18.73
  -3   1  -6  155.03   23.04
  -3   1  -6  112.50   18.20
  -3   1  -7  537.90   39.74
  -3   1  -7  590.07   44.27
  -3   1  -8 1311.09   64.63
  -3   1  -9   87.86   14.14
  -3   1  -9   81.25   11.48
  -3   1  -9   96.62   12.77
  -3   1 -10  389.24   27.67
  -3   1 -10  376.25   26.76
  -3   1 -10  391.83   26.37
  -3   1 -10  399.75   26.94
  -3   1 -10  398.17   26.42
  -3   1 -11  158.78   16.54
  -3   1 -11  142.53   16.00
  -3   1 -11  151.92   15.67
  -3   1 -11  168.21   16.64
  -3   1 -12   50.47    8.72
  -3   1 -12   46.69    7.82
  -3   1 -12   44.74    7.91
  -3   1 -12   45.60    8.23
  -3   1 -13   44.65    7.76
  -3   1 -13   51.59    8.51
  -3   1 -13   49.67    8.28
  -3   1 -14   23.01    4.31
  -3   1 -14   28.40    5.75
  -3   1 -15  701.06   33.99
  -3   1 -16  244.35   15.72
  -3   1 -17   18.96    3.52
  -3   1 -17    5.90    2.02
   3   0 -15    1.53    0.85
   3   0 -15   11.34    2.60
   3   0 -14    6.11    1.97
   3   0 -14   12.03    3.19
   3   0 -14    7.03    2.21
   3   0 -13    6.36    2.91
   3   0 -13    3.96    2.04
   3   0 -13   11.00    3.79
   3   0 -13    7.39    3.73
   3   0 -13   13.05    4.27
   3   0 -12   65.02    9.65
   3   0 -12   67.80   10.28
   3   0 -12   75.32   10.15
   3   0 -12   84.81   11.57
   3   0 -12   97.30   12.82
   3   0 -11   59.51    9.81
   3   0 -11   44.13    8.77
   3   0 -11   54.54    9.62
   3   0 -11   56.97   11.21
   3   0 -11   54.63   10.40
   3   0 -10   10.52    6.42
   3   0 -10   13.23    5.02
   3   0 -10   12.01    5.43
   3   0 -10   16.59    5.19
   3   0 -10   12.31    5.32
   3   0  -9    5.76    6.50
   3   0  -9   12.89    5.85
   3   0  -9    1.10    2.75
   3   0  -9    4.71    4.13
   3   0  -9    7.17    6.57
   3   0  -8  164.95   20.27
   3   0  -8  139.04   18.14
   3   0  -8  111.45   16.63
   3   0  -8  139.10   16.23
   3   0  -8  131.61   16.53
   3   0  -8  141.88   21.88
   3   0  -7   80.09   13.48
   3   0  -7   79.32   14.51
   3   0  -7   71.93   14.73
   3   0  -7   72.18   13.95
   3   0  -7   72.52   15.32
   3   0  -7   57.59   13.95
   3   0  -7   76.43   16.31
   3   0  -6    5.85    3.80
   3   0  -6   11.84    6.50
   3   0  -5   17.08    6.83
   3   0  -5   11.63    5.70
   3   0  -5   10.77    6.35
   3   0  -4   -2.97    5.65
   3   0  -4   11.74    3.07
  -3   0   3  626.72   47.31
   3   0  -3  638.83   40.40
   3   0  -3  559.93   46.49
   3   0  -3  660.00   38.15
   3   0  -2    6.38    2.58
  -3   0   2    5.11    5.83
   3   0  -2    8.33    8.69
  -3   0   1   58.17   16.84
   3   0  -1   69.91    9.96
   3   0  -1   41.15   10.28
  -3   0   0  675.10   55.61
  -3   0  -1  175.78   28.57
   3   0   2  888.90   35.80
  -3   0  -3   56.46   17.29
  -3   0  -4   10.73    5.68
  -3   0  -4    1.52    2.71
  -3   0  -5 1410.94   73.68
  -3   0  -5 1257.01   59.46
  -3   0  -6   -5.93    4.74
  -3   0  -6    2.90    3.40
  -3   0  -7  222.00   19.49
  -3   0  -8   80.36   10.01
  -3   0  -8   64.50   11.01
  -3   0  -9    6.87    3.86
  -3   0  -9    5.56    2.04
  -3   0 -10  463.26   30.12
  -3   0 -10  452.27   29.01
  -3   0 -10  444.71   30.28
  -3   0 -10  492.56   30.88
  -3   0 -11   56.64    9.17
  -3   0 -11   60.56    9.52
  -3   0 -11   63.19   10.95
  -3   0 -11   48.04    9.08
  -3   0 -11   53.31    8.79
  -3   0 -11   63.18    9.75
  -3   0 -12  194.43   16.66
  -3   0 -12  209.52   18.16
  -3   0 -12  206.72   19.59
  -3   0 -12  203.78   17.24
  -3   0 -12  243.10   19.53
  -3   0 -13  357.07   22.48
  -3   0 -13  347.79   21.35
  -3   0 -13  281.46   22.76
  -3   0 -13  347.82   24.65
  -3   0 -14    0.55    0.83
  -3   0 -14    1.84    2.37
  -3   0 -15  122.18   13.51
  -3   0 -16   73.53    8.94
  -3   0 -17    8.88    2.67
  -3   0 -17    5.67    2.19
   3   1 -15    2.09    0.84
   3   1 -15   16.96    3.51
   3   1 -14  183.98   11.30
   3   1 -14  208.53   15.06
   3   1 -13   45.92    7.45
   3   1 -13   38.72    6.36
   3   1 -13   34.93    5.96
   3   1 -13   44.79    7.93
   3   1 -13   54.52    9.19
   3   1 -12  214.49   18.56
   3   1 -12  208.77   16.49
   3   1 -12  216.12   17.91
   3   1 -11  137.58   15.44
   3   1 -11  160.12   15.38
   3   1 -10   49.70    9.37
   3   1 -10   49.29    8.49
   3   1 -10   69.06   14.06
   3   1  -9   39.12    9.95
   3   1  -9   41.93    8.23
   3   1  -9   47.45   10.32
   3   1  -9   36.94   10.72
   3   1  -8  360.95   28.64
   3   1  -8  369.27   28.96
   3   1  -8  410.97   31.92
   3   1  -8  375.14   37.87
   3   1  -7  430.35   30.18
   3   1  -7  450.31   32.81
   3   1  -7  353.91   27.36
   3   1  -7  424.55   38.91
   3   1  -7  524.30   41.62
   3   1  -7  483.17   41.54
   3   1  -6  148.51   18.06
   3   1  -6  135.04   16.32
   3   1  -6  184.76   23.89
   3   1  -5  140.24   16.86
   3   1  -5  271.55   28.03
   3   1  -4   59.47   13.18
   3   1  -4   46.05    9.48
  -3  -1   4   53.43   10.03
   3   1  -4   65.27   11.19
   3   1  -4   88.09   15.40
   3   1  -3 2472.67  101.85
   3   1  -3 2600.61  108.37
   3   1  -3 2803.92   93.45
   3   1  -2  674.54   49.36
   3   1  -1  940.68   62.52
  -3  -1   1  891.16   61.01
  -3  -1   0   31.12    9.92
  -3  -1  -1 3222.62   92.05
  -3  -1  -1 3839.03  152.79
   3   1   2  179.38    9.84
   3   1   3  437.94   43.96
  -3  -1  -3  484.83   43.43
   3   1   4 1054.31   68.32
  -3  -1  -4 1068.72   63.73
  -3  -1  -4 1103.85   53.67
   3   1   5 3263.61  130.06
  -3  -1  -5 3095.94  120.44
  -3  -1  -6  252.32   22.50
  -3  -1  -7   68.86   10.01
  -3  -1  -7   48.33    8.39
  -3  -1  -8   73.99    9.84
  -3  -1  -9  222.02   18.15
  -3  -1  -9  235.31   20.70
  -3  -1 -10  388.97   25.48
  -3  -1 -10  369.13   25.30
  -3  -1 -10  410.62   27.91
  -3  -1 -10  449.02   29.18
  -3  -1 -11  509.04   29.07
  -3  -1 -11  474.56   27.64
  -3  -1 -11  484.16   30.75
  -3  -1 -11  387.73   26.69
  -3  -1 -11  477.83   28.74
  -3  -1 -11  575.58   31.57
  -3  -1 -12  430.57   25.38
  -3  -1 -12  390.50   23.91
  -3  -1 -12  298.66   21.47
  -3  -1 -12  325.42   23.77
  -3  -1 -12  455.87   26.51
  -3  -1 -12  397.99   27.50
  -3  -1 -13  754.11   34.88
  -3  -1 -13  837.52   39.26
  -3  -1 -14   74.07   10.20
  -3  -1 -14   78.82   11.95
  -3  -1 -14   68.95    9.80
  -3  -1 -15    2.97    3.23
  -3  -1 -15    4.10    3.79
  -3  -1 -15    8.46    4.40
  -3  -1 -16   24.45    5.18
  -3  -1 -16   23.39    4.37
  -3  -1 -16   30.62    6.04
  -3  -1 -17    0.83    1.20
  -3  -1 -17    1.33    0.95
  -3  -1 -17    3.06    1.55
   3   2 -15   21.69    4.33
   3   2 -14    0.69    1.27
   3   2 -14    1.59    0.85
   3   2 -13   33.57    5.13
   3   2 -13   43.25    7.39
   3   2 -13   34.30    5.15
   3   2 -13   33.62    6.14
   3   2 -12  155.18   13.71
   3   2 -12  163.30   15.37
   3   2 -11  149.42   15.78
   3   2 -11  159.15   14.63
  -3  -2  11  134.35   14.22
   3   2 -11  145.51   15.89
   3   2 -10   92.57   13.98
  -3  -2  10   61.26    9.80
   3   2 -10   67.60   10.20
   3   2 -10   72.64   11.28
   3   2 -10   63.34   15.00
   3   2 -10   74.32   11.30
   3   2  -9   19.64    5.84
  -3  -2   9   15.65    4.18
   3   2  -9   22.10   10.91
   3   2  -9   16.15    6.39
   3   2  -9   15.33    4.97
   3   2  -9   20.76    8.07
   3   2  -9   14.84    6.04
   3   2  -8  307.11   25.86
   3   2  -8  299.39   27.65
   3   2  -8  256.68   23.83
   3   2  -8  287.41   34.76
   3   2  -8  302.85   28.95
   3   2  -7  270.26   24.48
   3   2  -7  271.02   24.20
   3   2  -7  211.23   22.99
   3   2  -7  335.86   35.29
   3   2  -7  332.13   32.68
   3   2  -6  140.47   22.22
   3   2  -5   65.63   10.63
   3   2  -5   94.78   10.97
  -3  -2   4   33.47    8.09
   3   2  -4   49.17   11.22
   3   2  -4   33.34    7.88
   3   2  -4   35.41    6.85
   3   2  -4   41.67    8.58
   3   2  -3 1873.23   85.09
  -3  -2   3 1945.03   81.87
  -3  -2   2  264.80   26.72
   3   2  -2  290.06   30.28
   3   2  -2  282.40   16.04
  -3  -2   1  885.97   55.82
  -3  -2   0    0.97    8.25
  -3  -2  -1 2145.78  101.50
  -3  -2  -2   27.29    5.44
  -3  -2  -3  567.95   43.06
  -3  -2  -4  628.98   42.46
   3   2   4  679.28   53.90
  -3  -2  -5 2834.40  106.61
   3   2   5 3287.65  128.00
  -3  -2  -6  120.95   14.86
   3   2   6  123.16   19.25
  -3  -2  -7   69.96   10.49
   3   2   7   67.33   12.56
  -3  -2  -7   73.16   11.55
  -3  -2  -8   78.19    9.98
  -3  -2  -8   49.69    7.58
  -3  -2  -8   59.68    9.43
  -3  -2  -9  141.67   13.43
  -3  -2  -9  133.03   13.45
  -3  -2  -9  174.50   18.69
  -3  -2 -10  388.90   23.66
  -3  -2 -10  368.57   23.89
  -3  -2 -10  468.81   30.66
  -3  -2 -10  493.61   31.40
  -3  -2 -10  381.78   25.99
  -3  -2 -10  396.73   26.47
  -3  -2 -10  359.50   24.51
  -3  -2 -10  436.45   26.78
  -3  -2 -11  421.23   24.89
  -3  -2 -11  400.65   29.05
  -3  -2 -11  503.62   32.74
  -3  -2 -11  401.29   27.13
  -3  -2 -11  295.73   22.25
  -3  -2 -11  359.68   24.73
  -3  -2 -11  361.54   24.01
  -3  -2 -12  395.23   21.90
  -3  -2 -12  415.37   29.11
  -3  -2 -12  422.62   28.67
  -3  -2 -13  874.95   43.18
  -3  -2 -13  897.20   43.25
  -3  -2 -14   31.43    7.69
  -3  -2 -14   19.51    4.23
  -3  -2 -14   38.09    7.27
  -3  -2 -15   15.36    4.85
  -3  -2 -15   12.33    3.48
  -3  -2 -16   17.23    5.58
  -3  -2 -16    6.70    2.87
  -3  -2 -17    0.93    0.99
  -3  -2 -17    2.58    1.08
   3   3 -15   25.77    4.27
   3   3 -14    2.93    2.79
   3   3 -13    6.26    2.66
  -3  -3  13    8.05    3.34
   3   3 -13   11.27    3.35
   3   3 -13    0.22    1.64
   3   3 -13    4.31    1.55
   3   3 -12   62.76    9.10
   3   3 -12   82.34   11.18
  -3  -3  12   47.06    7.94
   3   3 -12   56.84    7.67
   3   3 -12   53.42    7.95
   3   3 -11   20.03    5.98
  -3  -3  11   20.07    5.87
   3   3 -11   23.64    7.58
   3   3 -11   17.34    3.59
   3   3 -11   12.88    4.33
   3   3 -10    3.72    4.27
  -3  -3  10    1.59    3.24
   3   3 -10    4.21    3.77
   3   3 -10    4.56    3.05
   3   3 -10    1.21    3.07
   3   3 -10   -1.56    4.83
   3   3  -9   39.81    7.39
  -3  -3   9   37.22    7.93
   3   3  -9   33.85    6.95
   3   3  -9   32.58    6.92
   3   3  -9   38.89   12.74
   3   3  -9   47.27    9.57
   3   3  -8   16.79    2.76
   3   3  -8   19.10   10.77
   3   3  -8   14.84    5.00
   3   3  -8   12.37    4.37
   3   3  -8   16.54    9.04
   3   3  -8   22.98    7.85
   3   3  -7  107.38   14.07
   3   3  -7  110.68   15.50
   3   3  -7  100.98   13.28
   3   3  -7   95.16   14.54
   3   3  -7  132.82   22.37
   3   3  -7  121.86   17.25
   3   3  -6   96.56   13.63
   3   3  -5  101.56   14.44
   3   3  -5   94.06   13.29
  -3  -3   5   97.82   16.62
   3   3  -5   79.46   10.72
   3   3  -4   28.69    5.72
   3   3  -4   27.76    9.03
  -3  -3   3  216.68   25.54
  -3  -3   2  101.46   17.01
  -3  -3   1  106.44   18.75
  -3  -3   0 1045.01   63.88
  -3  -3  -1   14.94    8.20
  -3  -3  -1   23.21    2.93
  -3  -3  -1   18.66    4.48
  -3  -3  -2 1461.86   59.21
  -3  -3  -2 1611.24   69.23
  -3  -3  -3   22.82    7.87
  -3  -3  -3    9.83    4.59
  -3  -3  -4   31.07   11.31
  -3  -3  -4   29.30    8.80
  -3  -3  -5  465.08   35.20
  -3  -3  -6   43.86    9.46
  -3  -3  -6   55.60    8.78
  -3  -3  -7  309.96   26.80
  -3  -3  -7  273.38   19.23
   3   3   7  274.75   27.48
  -3  -3  -7  299.87   24.51
  -3  -3  -8  316.01   26.74
  -3  -3  -8  310.47   20.56
  -3  -3  -8  284.05   24.41
  -3  -3  -9   -0.70    2.10
  -3  -3  -9   -1.45    3.36
  -3  -3  -9    2.38    2.59
  -3  -3  -9    1.66    1.45
  -3  -3 -10  415.62   23.76
  -3  -3 -10  449.47   30.45
  -3  -3 -10  449.86   32.33
  -3  -3 -10  412.37   26.62
  -3  -3 -10  397.68   25.76
  -3  -3 -10  357.39   24.91
  -3  -3 -10  401.01   31.07
  -3  -3 -10  413.95   24.80
  -3  -3 -11    5.32    5.63
  -3  -3 -11    1.64    3.57
  -3  -3 -11    2.17    2.90
  -3  -3 -11    0.41    2.23
  -3  -3 -11    7.08    5.97
  -3  -3 -11    5.72    3.53
  -3  -3 -11    3.30    1.78
  -3  -3 -12   80.52   13.03
  -3  -3 -12   63.50    9.48
  -3  -3 -12   62.04   11.23
  -3  -3 -13  184.04   16.61
  -3  -3 -13  145.29   14.44
  -3  -3 -13  189.03   19.57
  -3  -3 -14    5.95    1.81
  -3  -3 -14    3.46    2.73
  -3  -3 -14    3.05    1.40
  -3  -3 -14    2.68    3.00
  -3  -3 -14    8.10    3.26
  -3  -3 -15  195.76   17.91
  -3  -3 -15  207.47   16.89
  -3  -3 -15  185.41   15.49
  -3  -3 -16   86.63   10.29
  -3  -3 -16   85.94    9.39
  -3  -3 -16   96.86   10.47
  -3  -3 -17    1.86    0.93
  -3  -3 -17   -0.23    1.51
   3   4 -14   25.26    3.56
  -3  -4  14   37.54    5.11
   3   4 -13  141.26   11.43
  -3  -4  13  174.20   13.73
   3   4 -13  154.98   11.74
   3   4 -12   22.68    5.63
  -3  -4  12   19.85    5.25
   3   4 -12   27.20    5.55
   3   4 -12   18.78    4.55
   3   4 -11    9.47    3.04
  -3  -4  11   14.40    4.92
   3   4 -11    3.97    1.81
   3   4 -11   11.01    4.38
   3   4 -11   10.29    6.74
   3   4 -11   10.35    5.54
   3   4 -10  249.33   21.19
  -3  -4  10  221.56   21.07
   3   4 -10  252.11   18.36
   3   4 -10  213.47   18.40
   3   4 -10  277.76   33.75
   3   4 -10  262.26   21.37
   3   4  -9  475.25   31.28
  -3  -4   9  393.14   30.59
   3   4  -9  461.72   28.33
   3   4  -9  451.78   28.01
   3   4  -9  537.55   49.05
   3   4  -9  519.89   32.92
   3   4  -8   10.73    5.45
   3   4  -8    2.86    2.23
   3   4  -8    0.45    1.78
   3   4  -8    2.48    5.25
   3   4  -8    5.62    3.68
   3   4  -7    7.38    5.46
   3   4  -7    1.96    4.87
  -3  -4   7    1.97    3.91
   3   4  -7    2.76    4.31
   3   4  -7    7.56    5.32
   3   4  -7    0.74    4.16
   3   4  -6  848.38   42.36
   3   4  -6  676.15   38.12
   3   4  -5  489.32   31.15
  -3  -4   5  505.53   47.02
   3   4  -4  267.31   22.46
  -3  -4   4  243.25   30.91
  -3  -4   3   42.18   12.68
   3   4  -3   52.26   10.63
  -3  -4   2 1512.29   86.49
  -3  -4   1  275.26   33.10
  -3  -4   0 1069.62   73.67
  -3  -4  -1  379.65   42.48
  -3  -4  -1  441.88   21.82
  -3  -4  -1  466.81   33.63
  -3  -4  -2 2273.60   80.89
  -3  -4  -2 2108.68   89.00
  -3  -4  -3  133.72   24.50
  -3  -4  -3  105.38   15.57
  -3  -4  -3  127.82   19.10
  -3  -4  -4 1014.47   64.33
  -3  -4  -4  877.22   52.76
  -3  -4  -5   18.74    8.33
  -3  -4  -5   14.32    5.56
  -3  -4  -6  256.61   28.66
  -3  -4  -7  629.23   47.87
  -3  -4  -7  592.94   29.63
  -3  -4  -7  667.12   38.98
  -3  -4  -8 1272.79   49.18
  -3  -4  -8 1246.37   66.69
  -3  -4  -8 1283.69   60.63
  -3  -4  -9  159.77   19.65
  -3  -4  -9  163.46   17.35
  -3  -4  -9  181.11   14.68
  -3  -4  -9  168.19   19.81
  -3  -4  -9  194.48   17.64
  -3  -4  -9  168.37   16.54
  -3  -4  -9  156.44   19.80
  -3  -4  -9  181.56   15.09
  -3  -4  -9  201.00   17.98
  -3  -4 -10  360.05   29.20
  -3  -4 -10  323.94   25.14
  -3  -4 -10  336.44   26.97
  -3  -4 -10  322.81   29.02
  -3  -4 -10  310.10   20.39
  -3  -4 -10  307.15   22.75
  -3  -4 -10  307.60   22.57
  -3  -4 -11  244.75   21.25
  -3  -4 -11  235.23   22.27
  -3  -4 -11  246.41   22.64
  -3  -4 -11  207.55   18.14
  -3  -4 -11  228.88   19.70
  -3  -4 -11  221.57   24.25
  -3  -4 -12  107.02   14.67
  -3  -4 -12   97.29   12.27
  -3  -4 -12   84.58   12.92
  -3  -4 -12   90.04   11.13
  -3  -4 -12   86.61   11.54
  -3  -4 -12   77.70   10.73
  -3  -4 -12   98.99   15.89
  -3  -4 -13   13.26    4.32
  -3  -4 -13   13.16    5.61
  -3  -4 -13   17.09    6.91
  -3  -4 -13   12.81    4.06
  -3  -4 -13   12.39    5.03
  -3  -4 -13   14.96    4.84
  -3  -4 -13   14.02    4.93
  -3  -4 -14   27.89    6.13
  -3  -4 -14   21.15    6.09
  -3  -4 -14   23.24    5.79
  -3  -4 -14   28.15    6.62
  -3  -4 -14   18.61    5.35
  -3  -4 -15  470.74   29.39
  -3  -4 -15  435.37   24.94
  -3  -4 -15  463.80   26.51
  -3  -4 -16  275.14   18.92
  -3  -4 -16  257.71   16.61
  -3  -4 -16  281.51   17.32
  -3  -4 -17   19.84    4.08
  -3  -4 -17   24.38    3.95
  -3  -4 -17   18.55    3.62
  -3  -5  14   12.04    3.10
   3   5 -14   10.97    2.64
  -3  -5  13  226.72   16.10
   3   5 -13  206.73   14.28
  -3  -5  12    5.22    2.37
   3   5 -12    5.07    3.48
  -3  -5  11    6.28    3.76
   3   5 -11    6.62    3.38
   3   5 -11    5.14    1.72
   3   5 -10  205.39   18.56
  -3  -5  10  171.40   18.22
   3   5 -10  180.30   15.78
   3   5  -9  241.38   21.45
  -3  -5   9  194.02   21.08
   3   5  -9  226.63   18.32
   3   5  -8   38.27    8.38
  -3  -5   8   27.02    8.12
   3   5  -8   26.06    6.60
  -3  -5   7   26.03    7.39
   3   5  -7   25.83    8.26
   3   5  -7   25.19    6.22
  -3  -5   6  596.77   42.39
  -3  -5   6  630.44   39.63
   3   5  -6  640.78   38.32
   3   5  -6  584.34   33.83
   3   5  -5  345.91   25.07
  -3  -5   4  333.73   44.04
   3   5  -4  296.48   22.69
   3   5  -4  343.16   25.23
   3   5  -3   24.11    5.45
  -3  -5   3   26.70   16.11
  -3  -5   2 1170.17   88.18
  -3  -5   1   10.70    9.37
  -3  -5   1    2.19    5.22
  -3  -5   0  829.64   75.95
  -3  -5   0  746.10   37.63
  -3  -5   0  829.61   49.08
  -3  -5  -1  862.92   39.98
  -3  -5  -1  805.45   74.17
  -3  -5  -1  831.98   38.83
  -3  -5  -1  856.70   51.45
  -3  -5  -2 2395.93   96.66
  -3  -5  -2 2326.92  102.95
  -3  -5  -3    7.50    5.51
  -3  -5  -3   10.50    7.65
  -3  -5  -4  424.40   48.21
  -3  -5  -4  417.76   39.52
  -3  -5  -4  396.28   23.27
  -3  -5  -5    8.69    8.29
  -3  -5  -5   -2.91    8.64
  -3  -5  -5    1.57    2.63
  -3  -5  -6  249.91   34.26
  -3  -5  -6  217.56   27.19
  -3  -5  -6  214.42   19.98
  -3  -5  -7  395.89   22.81
  -3  -5  -7  500.75   49.87
  -3  -5  -8  930.73   38.63
  -3  -5  -8  824.59   42.41
  -3  -5  -9  195.73   18.79
  -3  -5  -9  176.36   20.85
  -3  -5  -9  204.92   17.42
  -3  -5  -9  163.10   21.15
  -3  -5 -10  470.11   34.49
  -3  -5 -10  439.21   31.43
  -3  -5 -10  445.95   29.03
  -3  -5 -10  452.49   26.43
  -3  -5 -10  408.22   27.71
  -3  -5 -10  383.49   34.08
  -3  -5 -10  412.13   28.08
  -3  -5 -11   71.74   10.94
  -3  -5 -11   70.25   12.45
  -3  -5 -11   73.16   12.64
  -3  -5 -11   57.40    9.04
  -3  -5 -11   58.37   13.33
  -3  -5 -11   56.25    9.61
  -3  -5 -11   61.54    9.84
  -3  -5 -12   30.90    7.22
  -3  -5 -12   31.79    6.97
  -3  -5 -12   34.95    8.37
  -3  -5 -12   23.34    5.60
  -3  -5 -12   25.51    6.47
  -3  -5 -12   42.64   10.82
  -3  -5 -12   21.25    6.25
  -3  -5 -12   28.44    7.31
  -3  -5 -13  125.54   14.81
  -3  -5 -13  105.99   11.54
  -3  -5 -13  111.12   14.06
  -3  -5 -13  119.15   13.73
  -3  -5 -13   87.03   11.31
  -3  -5 -13  123.62   16.75
  -3  -5 -13   98.90   11.68
  -3  -5 -14   20.84    5.69
  -3  -5 -14   17.22    4.95
  -3  -5 -14   15.93    4.48
  -3  -5 -14   20.89    6.55
  -3  -5 -14   22.25    5.55
  -3  -5 -15  474.31   29.29
  -3  -5 -15  463.26   25.10
  -3  -5 -15  448.78   24.39
  -3  -5 -16  223.35   14.46
  -3  -5 -16  206.15   15.98
  -3  -5 -16  225.10   14.95
  -3  -5 -17   32.40    4.87
  -3  -5 -17   29.08    4.20
  -3  -6  14   49.55    5.81
   3   6 -14   49.60    5.35
  -3  -6  13    2.59    2.50
   3   6 -13    4.16    2.21
   3   6 -12   59.44    7.25
  -3  -6  12   62.79    9.16
   3   6 -11    9.62    3.16
  -3  -6  11   12.80    4.84
  -3  -6  10   34.63    9.54
   3   6 -10   26.88    7.05
   3   6 -10   27.37    5.79
   3   6  -9    6.19    3.41
  -3  -6   9   10.04    5.79
  -3  -6   9    9.03    4.92
   3   6  -9    7.74    5.28
   3   6  -9   12.76    5.06
  -3  -6   8   45.00   10.57
  -3  -6   8   44.48   11.10
   3   6  -8   39.51    8.90
   3   6  -8   46.93    7.20
  -3  -6   7   52.00    9.96
  -3  -6   7   52.30   11.10
   3   6  -7   69.61   11.45
   3   6  -7   54.27    9.12
  -3  -6   6   10.52    6.14
  -3  -6   6   13.13    8.63
   3   6  -6   20.10    6.79
   3   6  -6    8.98    3.46
  -3  -6   5    4.62    6.02
  -3  -6   5    5.69    5.18
   3   6  -5    1.63    2.28
   3   6  -5    2.72    2.34
   3   6  -4  575.96   30.57
  -3  -6   4  528.29   60.89
  -3  -6   3  338.06   55.80
  -3  -6   2    2.09    7.84
  -3  -6   2   -7.94   14.54
  -3  -6   2    2.59    5.74
  -3  -6   1    7.92   17.48
  -3  -6   1    9.45    7.37
  -3  -6   1   21.60   10.17
  -3  -6   0  132.25   34.21
  -3  -6   0  126.85   10.75
  -3  -6   0  165.35   25.17
  -3  -6   0  146.68   17.11
  -3  -6   0  141.83   19.62
  -3  -6   0  208.42   51.59
  -3  -6  -1   47.35    9.70
  -3  -6  -1   28.51   26.44
  -3  -6  -1   56.10   16.18
  -3  -6  -1   32.51    8.32
  -3  -6  -1   39.03   29.64
  -3  -6  -1   41.23    9.36
  -3  -6  -2  307.24   35.41
  -3  -6  -2  338.98   30.96
  -3  -6  -2  349.80   21.14
  -3  -6  -3    6.90   12.17
  -3  -6  -3    5.18   12.79
  -3  -6  -3   -5.17    9.45
  -3  -6  -3    1.72    2.12
  -3  -6  -3    3.25    3.49
  -3  -6  -3   17.71   12.35
  -3  -6  -4   -0.92    6.74
  -3  -6  -4    9.28   16.11
  -3  -6  -4   -8.38    7.32
  -3  -6  -4   -0.78    2.49
  -3  -6  -5 1015.49   88.24
  -3  -6  -5  876.17   63.22
  -3  -6  -5  917.13   55.24
  -3  -6  -5  818.79   41.90
  -3  -6  -6  224.67   40.21
  -3  -6  -6  249.18   30.25
  -3  -6  -6  253.96   23.07
  -3  -6  -7   59.47   12.57
  -3  -6  -7   60.53   13.86
  -3  -6  -7   52.53   12.76
  -3  -6  -7   60.22   10.65
  -3  -6  -8   36.19   10.24
  -3  -6  -8   32.77   10.76
  -3  -6  -8   34.02    9.62
  -3  -6  -8   49.32   11.24
  -3  -6  -8   36.59    7.35
  -3  -6  -9    1.84    1.88
  -3  -6  -9    1.57    2.28
  -3  -6  -9    0.81    4.45
  -3  -6 -10  237.79   22.66
  -3  -6 -10  229.10   19.09
  -3  -6 -10  206.30   26.17
  -3  -6 -10  200.29   17.59
  -3  -6 -11   40.80    8.44
  -3  -6 -11   39.72    7.26
  -3  -6 -11   42.20    7.72
  -3  -6 -11   46.40    9.93
  -3  -6 -11   41.28    8.08
  -3  -6 -11   33.37   10.93
  -3  -6 -11   37.11    9.02
  -3  -6 -11   35.67    8.48
  -3  -6 -12   67.16   11.61
  -3  -6 -12   59.87   10.63
  -3  -6 -12   63.45    8.59
  -3  -6 -12   51.63    8.50
  -3  -6 -12   64.63   11.10
  -3  -6 -12   50.62    8.65
  -3  -6 -12   66.65   12.07
  -3  -6 -12   58.51    9.53
  -3  -6 -12   51.50   11.90
  -3  -6 -13  195.68   18.90
  -3  -6 -13  177.08   16.73
  -3  -6 -13  163.35   13.30
  -3  -6 -13  179.81   17.02
  -3  -6 -13  178.58   20.95
  -3  -6 -13  162.18   16.29
  -3  -6 -13  150.64   15.08
  -3  -6 -13  157.02   14.73
  -3  -6 -14    4.46    2.86
  -3  -6 -14    3.17    2.68
  -3  -6 -14    1.62    2.48
  -3  -6 -14    4.59    3.67
  -3  -6 -14    8.18    3.08
  -3  -6 -14    2.10    1.59
  -3  -6 -15   88.94   11.83
  -3  -6 -15   93.24    9.51
  -3  -6 -16    2.66    1.16
  -3  -6 -16    1.19    2.05
  -3  -7  13   93.96    9.15
   3   7 -13  102.21    8.90
  -3  -7  12  154.00   13.94
  -3  -7  11   52.90    9.50
   3   7 -11   42.58    6.96
   3   7 -10   84.08   11.00
  -3  -7  10   81.00   12.31
  -3  -7  10   87.53   11.50
   3   7 -10   79.74   17.70
   3   7  -9   33.90    7.79
  -3  -7   9   49.88   10.70
  -3  -7   9   56.71   12.34
   3   7  -9   51.04   15.06
   3   7  -8  166.02   17.62
  -3  -7   8  158.52   19.50
  -3  -7   8  174.90   23.02
   3   7  -8  184.61   15.83
   3   7  -7  301.70   24.74
  -3  -7   7  247.04   26.28
  -3  -7   7  279.55   25.13
  -3  -7   7  266.90   28.68
   3   7  -7  306.18   20.53
  -3  -7   6   92.48   14.51
   3   7  -6  102.25   14.31
  -3  -7   6   81.73   15.67
   3   7  -6   93.56   10.63
  -3  -7   5  136.81   18.66
  -3  -7   5  131.45   20.96
  -3  -7   5  130.05   19.04
  -3  -7   4    8.61    5.16
  -3  -7   4    6.20    3.64
  -3  -7   3  890.64   65.93
  -3  -7   3  898.58   58.82
  -3  -7   2  590.22   82.80
  -3  -7   2  499.44   40.46
  -3  -7   1  208.47   56.09
  -3  -7   1  165.77   21.07
  -3  -7   1  151.18   22.75
  -3  -7   1  255.43   55.62
  -3  -7   0   14.12   12.11
  -3  -7   0   -4.01   18.40
  -3  -7   0    5.46    1.94
  -3  -7   0    9.06    4.38
  -3  -7   0    9.38    7.10
  -3  -7   0    2.11    4.46
  -3  -7   0    4.62   36.01
  -3  -7  -1 1357.10   75.13
  -3  -7  -1 1606.76   99.91
  -3  -7  -1 1715.53  159.15
  -3  -7  -1 1572.04   79.90
  -3  -7  -1 1568.44   57.67
  -3  -7  -1 1669.13  174.16
  -3  -7  -2   -4.69    6.94
  -3  -7  -2    4.02    2.14
  -3  -7  -2    3.74    5.04
  -3  -7  -3   36.39   15.16
  -3  -7  -3   41.66   15.51
  -3  -7  -3   29.86   15.65
  -3  -7  -3   40.48   11.73
  -3  -7  -3   32.80    7.59
  -3  -7  -3   28.74   21.41
  -3  -7  -4  576.82   56.83
  -3  -7  -4  593.75   81.28
  -3  -7  -4  506.45   31.24
  -3  -7  -4  509.13   68.16
  -3  -7  -5 2112.41  141.27
  -3  -7  -5 2206.90  113.84
  -3  -7  -5 2132.77   83.70
  -3  -7  -6    9.10    3.96
  -3  -7  -6   12.24    8.23
  -3  -7  -6    8.93    5.98
  -3  -7  -6    1.47    2.52
  -3  -7  -6    2.62    4.67
  -3  -7  -7   19.60    8.40
  -3  -7  -7    6.71    4.06
  -3  -7  -7   14.50    4.91
  -3  -7  -7   21.05    8.39
  -3  -7  -7   13.55    5.81
  -3  -7  -7   10.66    2.62
  -3  -7  -7   23.07    5.70
  -3  -7  -8   94.22   14.75
  -3  -7  -8  110.02   19.63
  -3  -7  -8  104.02   14.85
  -3  -7  -8   93.31   15.61
  -3  -7  -8  112.07   17.96
  -3  -7  -9  111.28   20.32
  -3  -7  -9  112.18   17.01
  -3  -7  -9  131.38   20.59
  -3  -7  -9  129.23   14.69
  -3  -7  -9  127.29   16.48
  -3  -7 -10  371.76   28.14
  -3  -7 -10  387.60   31.98
  -3  -7 -10  326.12   33.43
  -3  -7 -10  410.26   27.10
  -3  -7 -10  379.17   28.70
  -3  -7 -10  369.16   24.55
  -3  -7 -11  190.55   19.20
  -3  -7 -11  185.59   20.46
  -3  -7 -11  178.74   24.02
  -3  -7 -11  216.52   22.09
  -3  -7 -11  178.18   17.29
  -3  -7 -11  179.36   16.83
  -3  -7 -12  358.11   25.13
  -3  -7 -12  368.17   33.02
  -3  -7 -12  350.25   27.07
  -3  -7 -12  338.66   25.97
  -3  -7 -12  300.43   23.51
  -3  -7 -12  331.74   23.04
  -3  -7 -12  324.42   22.22
  -3  -7 -13  340.14   22.28
  -3  -7 -13  323.00   23.57
  -3  -7 -13  344.19   24.54
  -3  -7 -13  356.86   29.99
  -3  -7 -13  324.10   23.01
  -3  -7 -13  304.52   21.03
  -3  -7 -13  324.35   21.15
  -3  -7 -14    7.66    4.18
  -3  -7 -14    8.18    3.06
  -3  -7 -14   12.06    5.32
  -3  -7 -14    7.68    2.61
  -3  -7 -14    8.66    3.41
  -3  -7 -15   -1.22    1.95
  -3  -7 -15   -0.39    1.76
  -3  -7 -15    0.24    2.25
  -3  -7 -16   18.03    4.21
  -3  -8  13   92.03    8.29
  -3  -8  12  183.01   14.15
   3   8 -12  176.97   12.80
  -3  -8  11   44.89    6.77
  -3  -8  11   41.54    8.15
  -3  -8  10   51.01    8.18
  -3  -8  10   56.87   10.20
   3   8 -10   53.98    8.13
  -3  -8   9   30.88    8.74
   3   8  -9   31.96    6.62
  -3  -8   9   31.02    8.56
   3   8  -9   36.32   12.93
   3   8  -8  128.21   15.25
  -3  -8   8  101.51   16.03
   3   8  -7  475.63   32.52
  -3  -8   7  462.98   33.81
  -3  -8   7  451.68   35.82
  -3  -8   6   70.89   13.75
  -3  -8   6   88.76   16.03
   3   8  -6   98.37   13.46
  -3  -8   6   77.17   13.78
   3   8  -5  123.67   15.96
  -3  -8   5  120.04   17.93
  -3  -8   5  127.78   19.13
  -3  -8   4    6.08    5.06
  -3  -8   4    9.81    5.30
  -3  -8   4    5.74    4.56
  -3  -8   4    3.19    6.07
  -3  -8   3  448.02   43.72
  -3  -8   3  497.73   41.83
  -3  -8   3  588.31   36.62
  -3  -8   3  542.00   48.36
  -3  -8   3  551.88   47.65
  -3  -8   2  150.47   24.39
  -3  -8   2  134.14   14.73
  -3  -8   2  144.88   22.88
  -3  -8   2  147.53   23.99
  -3  -8   2  132.19   24.30
  -3  -8   1   79.15   15.07
  -3  -8   1   71.00   15.53
  -3  -8   1   60.82   14.50
  -3  -8   1   89.85   20.11
  -3  -8   1   99.86   35.22
  -3  -8   0   15.95   15.34
  -3  -8   0   13.42    7.13
  -3  -8   0   12.61    3.99
  -3  -8   0    1.99   16.94
  -3  -8   0   15.95    6.96
  -3  -8   0   -4.98   35.85
  -3  -8  -1  746.51  108.34
  -3  -8  -1  635.02   49.79
  -3  -8  -1  754.56   53.42
  -3  -8  -1  707.84   76.65
  -3  -8  -1  898.96   61.72
  -3  -8  -1  830.58   39.50
  -3  -8  -1  892.60  134.46
  -3  -8  -2   -8.23   10.58
  -3  -8  -2    2.40   10.18
  -3  -8  -2    0.45    2.69
  -3  -8  -2   -1.12    5.14
  -3  -8  -3    5.19   12.28
  -3  -8  -3   11.03   11.33
  -3  -8  -3   -5.06   15.08
  -3  -8  -3    4.02    3.77
  -3  -8  -3   12.60   28.06
  -3  -8  -4  276.61   40.81
  -3  -8  -4  235.89   22.34
  -3  -8  -4  188.45   30.56
  -3  -8  -4  280.64   34.97
  -3  -8  -4  273.26   55.77
  -3  -8  -4  214.60   21.90
  -3  -8  -4  218.21   20.01
  -3  -8  -5 1113.34   79.76
  -3  -8  -5  968.49   62.58
  -3  -8  -5  993.77   53.83
  -3  -8  -5  985.55   73.47
  -3  -8  -5  899.57   50.97
  -3  -8  -5  846.03   46.05
  -3  -8  -5 1240.91   64.13
  -3  -8  -6   26.05    8.24
  -3  -8  -6   27.83    9.10
  -3  -8  -6   20.06    8.14
  -3  -8  -6   34.91   13.86
  -3  -8  -6   30.40    6.65
  -3  -8  -6   30.37    8.40
  -3  -8  -6   32.54    7.61
  -3  -8  -6   29.05    8.81
  -3  -8  -6   26.12    8.00
  -3  -8  -7    1.33    3.55
  -3  -8  -7    4.98    3.81
  -3  -8  -7    3.65    5.71
  -3  -8  -7   -5.34    6.96
  -3  -8  -7    3.97    3.62
  -3  -8  -7    0.80    3.29
  -3  -8  -7   -1.71    4.37
  -3  -8  -8   45.14   10.71
  -3  -8  -8   31.03   10.44
  -3  -8  -8   37.66    8.74
  -3  -8  -8   31.72    8.74
  -3  -8  -8   21.32    8.26
  -3  -8  -8   45.75    8.66
  -3  -8  -9  237.99   29.29
  -3  -8  -9  195.68   22.80
  -3  -8  -9  196.29   24.98
  -3  -8  -9  228.30   19.92
  -3  -8 -10  193.19   18.97
  -3  -8 -10  192.96   22.44
  -3  -8 -10  152.57   22.84
  -3  -8 -10  193.50   20.39
  -3  -8 -10  202.94   21.69
  -3  -8 -10  192.21   18.39
  -3  -8 -11  132.64   14.41
  -3  -8 -11  162.09   19.89
  -3  -8 -11  141.96   17.47
  -3  -8 -11  146.65   16.72
  -3  -8 -11  123.73   13.55
  -3  -8 -11   96.94   18.56
  -3  -8 -12  288.51   20.22
  -3  -8 -12  266.73   22.29
  -3  -8 -12  248.59   27.04
  -3  -8 -12  266.06   22.53
  -3  -8 -12  235.87   18.80
  -3  -8 -13  267.97   17.38
  -3  -8 -13  263.61   25.16
  -3  -8 -13  258.21   19.63
  -3  -8 -13  279.00   20.64
  -3  -8 -13  255.53   19.58
  -3  -8 -13  252.52   17.59
  -3  -8 -14    5.38    2.79
  -3  -8 -14    9.21    3.22
  -3  -8 -14    5.25    2.51
  -3  -8 -15    3.69    3.20
  -3  -9  12   83.09    8.58
   3   9 -12   85.64    7.64
  -3  -9  11    5.97    1.72
  -3  -9  11    6.56    1.86
   3   9 -11   10.56    2.99
   3   9 -10    9.50    2.56
  -3  -9  10   17.57    4.42
   3   9  -9   17.67    4.34
  -3  -9   9   24.21    5.77
  -3  -9   8    0.74    3.32
   3   9  -8    6.45    3.69
  -3  -9   8    7.72    2.50
  -3  -9   8   -2.13    3.66
   3   9  -7   96.66   13.77
  -3  -9   7   94.54   15.94
  -3  -9   7  127.40   18.67
  -3  -9   7  115.09   30.88
  -3  -9   6   14.28    4.01
  -3  -9   6   18.24    5.71
   3   9  -6   31.97    8.18
  -3  -9   6   21.60   11.80
  -3  -9   5   24.74    9.53
  -3  -9   5   41.15    9.21
   3   9  -5   51.92   10.28
  -3  -9   5   32.88   14.98
   3   9  -5   48.67   19.27
  -3  -9   4   -3.51    6.55
  -3  -9   4    5.75    8.58
  -3  -9   4    1.07    4.97
  -3  -9   4   11.27    8.30
  -3  -9   4   19.53   12.33
  -3  -9   4   11.61   11.11
  -3  -9   3   79.69   16.81
  -3  -9   3   99.13   15.08
  -3  -9   3   75.87   19.08
  -3  -9   3   89.13   21.27
  -3  -9   3  115.15   23.09
  -3  -9   2  201.83   26.06
  -3  -9   2  213.79   24.92
  -3  -9   2  221.57   19.77
  -3  -9   2  238.99   31.80
  -3  -9   2  255.23   36.03
  -3  -9   2  211.14   31.89
  -3  -9   1   13.44    7.29
  -3  -9   1   16.41    4.26
  -3  -9   1   28.04    9.04
  -3  -9   1   34.17   25.03
  -3  -9   1    9.49    5.21
  -3  -9   1   23.78    9.39
  -3  -9   1   11.87   10.45
  -3  -9   0  109.21   15.38
  -3  -9   0  120.36   31.24
  -3  -9   0  113.42   22.86
  -3  -9   0   95.67   38.76
  -3  -9  -1    2.67    5.04
  -3  -9  -1    4.35    8.27
  -3  -9  -1    5.48   23.16
  -3  -9  -1    4.52    7.06
  -3  -9  -1   -1.82    3.46
  -3  -9  -2  289.27   20.74
  -3  -9  -2  212.64   33.33
  -3  -9  -2  258.75   34.02
  -3  -9  -2  354.23   41.03
  -3  -9  -2  320.56   26.87
  -3  -9  -2  327.16   26.18
  -3  -9  -3    3.74    1.93
  -3  -9  -3    7.79    8.81
  -3  -9  -3    5.95    5.22
  -3  -9  -3    9.09   25.61
  -3  -9  -3   -9.04    7.60
  -3  -9  -3    5.24    2.83
  -3  -9  -4   74.72   20.43
  -3  -9  -4   61.50   18.06
  -3  -9  -4   49.54   18.93
  -3  -9  -4   70.59   14.20
  -3  -9  -4   71.60    9.21
  -3  -9  -4   55.28    9.96
  -3  -9  -5  128.59   27.20
  -3  -9  -5  113.64   22.34
  -3  -9  -5   90.19   20.55
  -3  -9  -5  107.27   16.77
  -3  -9  -5  113.36   15.62
  -3  -9  -5  135.90   12.99
  -3  -9  -6    7.43    9.45
  -3  -9  -6    1.96    4.85
  -3  -9  -6   -1.53    6.77
  -3  -9  -6    2.54    5.45
  -3  -9  -6    6.98    4.62
  -3  -9  -6    0.41    2.25
  -3  -9  -6    2.53    4.48
  -3  -9  -6    1.24    3.51
  -3  -9  -6    5.49    3.89
  -3  -9  -7  271.07   35.98
  -3  -9  -7  247.69   29.93
  -3  -9  -7  251.96   26.15
  -3  -9  -7  235.37   26.36
  -3  -9  -7  267.80   24.07
  -3  -9  -7  249.65   27.55
  -3  -9  -8  136.05   23.26
  -3  -9  -8  114.92   16.83
  -3  -9  -8  117.74   20.17
  -3  -9  -9   11.00    7.47
  -3  -9  -9    9.98    5.34
  -3  -9  -9   12.24    8.07
  -3  -9  -9    8.36    5.52
  -3  -9  -9   13.43    5.75
  -3  -9 -10   78.08   10.71
  -3  -9 -10   69.27   12.40
  -3  -9 -10   76.33   13.06
  -3  -9 -10   89.30   13.19
  -3  -9 -10   80.30   10.84
  -3  -9 -10   57.55   12.67
  -3  -9 -11    0.36    2.11
  -3  -9 -11    3.50    5.40
  -3  -9 -11   -0.78    2.32
  -3  -9 -11   -1.08    1.71
  -3  -9 -11    5.52    4.91
  -3  -9 -12   18.50    4.66
  -3  -9 -12   20.18    7.81
  -3  -9 -12   15.49    4.94
  -3  -9 -12   15.13    4.43
  -3  -9 -13  105.29   14.33
  -3  -9 -13   97.81   10.80
  -3  -9 -13  107.53   11.36
  -3  -9 -14    1.41    1.42
  -3  -9 -14    3.66    1.88
  -3  -9 -14    1.79    1.99
  -3  -9 -15   81.41    8.68
  -3 -10  11    3.20    2.05
   3  10 -11    2.97    1.74
  -3 -10  10  298.27   18.78
  -3 -10  10  329.79   22.20
   3  10 -10  276.54   16.89
   3  10  -9  229.76   16.45
  -3 -10   9  257.51   21.76
  -3 -10   9  228.14   18.14
   3  10  -9  230.27   16.64
  -3 -10   8    1.91    3.13
   3  10  -8   -2.16    2.68
  -3 -10   8    1.73    3.44
  -3 -10   7    8.96    5.33
  -3 -10   7    0.73    4.47
   3  10  -7    5.18    4.50
  -3 -10   7   -8.58   12.89
   3  10  -6  360.09   27.47
  -3 -10   6  304.49   29.84
  -3 -10   6  312.50   46.41
  -3 -10   6  383.81   53.77
   3  10  -5  240.74   22.87
  -3 -10   5  186.32   25.95
  -3 -10   5  266.29   26.11
  -3 -10   5  250.08   38.74
  -3 -10   5  290.50   45.57
   3  10  -5  212.09   37.07
  -3 -10   5  241.49   30.49
  -3 -10   4   76.97   15.53
  -3 -10   4   95.77   14.17
  -3 -10   4  110.19   20.17
  -3 -10   4  108.09   26.17
  -3 -10   4  124.65   28.68
   3  10  -4   90.78   24.45
  -3 -10   3   -1.91    7.66
  -3 -10   3    3.95    2.83
  -3 -10   3   10.22    8.92
  -3 -10   3   11.99    7.40
  -3 -10   3    6.78    7.38
  -3 -10   2  607.95   45.65
  -3 -10   2  689.96   36.74
  -3 -10   2  794.99   64.11
  -3 -10   2  772.25   65.95
  -3 -10   2  628.20   57.58
  -3 -10   1   34.19    6.65
  -3 -10   1   25.05    6.84
  -3 -10   1   16.02   14.20
  -3 -10   1   24.53   10.76
  -3 -10   0  314.01   26.64
  -3 -10   0  321.27   40.74
  -3 -10   0  274.82   45.99
  -3 -10  -1  176.97   17.73
  -3 -10  -1  149.41   32.13
  -3 -10  -1  201.56   32.71
  -3 -10  -1  179.13   58.84
  -3 -10  -1  186.52   21.05
  -3 -10  -2  516.66   29.83
  -3 -10  -2  580.63   38.98
  -3 -10  -3   -1.36    3.95
  -3 -10  -3    5.55    8.08
  -3 -10  -3    7.52    4.29
  -3 -10  -3    4.77    3.85
  -3 -10  -4  343.55   43.15
  -3 -10  -4  305.49   30.17
  -3 -10  -4  302.14   40.15
  -3 -10  -4  389.45   46.84
  -3 -10  -4  378.97   30.81
  -3 -10  -5   13.58    9.60
  -3 -10  -5    8.58   11.17
  -3 -10  -5    6.67    6.39
  -3 -10  -5   -4.05    4.55
  -3 -10  -5    8.58    2.78
  -3 -10  -5   10.13    6.10
  -3 -10  -6   79.37   21.02
  -3 -10  -6   81.82   19.34
  -3 -10  -6   75.74   16.54
  -3 -10  -6   82.19   12.95
  -3 -10  -7  464.37   47.58
  -3 -10  -7  402.67   36.70
  -3 -10  -7  413.76   30.33
  -3 -10  -8  606.63   51.52
  -3 -10  -8  678.90   43.26
  -3 -10  -9   92.11   18.00
  -3 -10  -9  102.39   14.53
  -3 -10  -9  117.87   16.13
  -3 -10  -9  108.45   18.73
  -3 -10 -10  102.10   17.42
  -3 -10 -10  111.15   14.78
  -3 -10 -10  111.82   14.54
  -3 -10 -10   85.76   12.59
  -3 -10 -11   71.26   14.35
  -3 -10 -11   85.74   11.68
  -3 -10 -11   76.21   11.47
  -3 -10 -12   76.14    9.92
  -3 -10 -12   76.61   10.16
  -3 -10 -12   76.38   13.32
  -3 -10 -13    9.94    2.87
  -3 -10 -13   12.82    3.30
  -3 -10 -13    8.58    2.86
  -3 -10 -14    5.49    1.86
  -3 -11  10  197.03   13.20
  -3 -11  10  226.70   15.36
   3  11 -10  208.80   12.43
  -3 -11   9  290.40   20.33
  -3 -11   9  261.26   18.15
   3  11  -9  274.60   16.12
   3  11  -8    1.94    1.72
  -3 -11   8    0.42    2.07
  -3 -11   8   -2.00    4.24
   3  11  -8    3.21    2.47
  -3 -11   7    2.69    2.18
  -3 -11   7    8.97    5.63
   3  11  -7    7.38    3.31
   3  11  -7    2.72    1.90
   3  11  -6  178.46   17.65
  -3 -11   6  194.08   22.34
  -3 -11   6  171.68   19.29
   3  11  -6  183.92   16.03
  -3 -11   5   19.82    5.82
  -3 -11   5   26.38    8.44
   3  11  -5   24.70    7.22
  -3 -11   5   18.25   14.84
  -3 -11   5   14.69    3.96
   3  11  -5   17.13    4.96
  -3 -11   4  125.68   16.08
  -3 -11   4  139.10   19.93
  -3 -11   4  127.28   27.12
   3  11  -4  112.05   25.40
  -3 -11   4  168.96   25.65
  -3 -11   4  166.88   33.10
  -3 -11   3   10.43    4.28
  -3 -11   3   25.83    6.43
   3  11  -3   25.40   14.43
  -3 -11   3   10.24    9.43
  -3 -11   3   26.98   12.51
  -3 -11   2  317.77   22.35
  -3 -11   2  325.92   30.49
  -3 -11   2  400.14   48.56
   3  11  -2  306.94   52.05
  -3 -11   2  283.28   39.31
  -3 -11   1    2.08    3.74
   3  11  -1   -8.82   14.32
  -3 -11   1   -4.91    5.08
  -3 -11   0  196.46   19.96
  -3 -11   0  157.15   32.27
  -3 -11   0  186.98   32.07
  -3 -11  -1    4.46    3.85
  -3 -11  -1    2.22    2.91
  -3 -11  -2  364.02   24.06
  -3 -11  -2  355.64   31.42
  -3 -11  -3   -7.53   11.98
  -3 -11  -3    5.25    5.55
  -3 -11  -4   95.35   22.19
   3  11   4  116.80   29.59
  -3 -11  -4   97.88   16.74
  -3 -11  -5   -5.50    5.36
   3  11   5   -9.28   18.92
  -3 -11  -5    9.76    3.61
  -3 -11  -5   16.15    5.83
  -3 -11  -5   17.58    7.22
  -3 -11  -5   12.83    6.12
  -3 -11  -6  172.00   28.14
   3  11   6  241.57   54.86
  -3 -11  -6  192.57   28.15
  -3 -11  -6  165.09   19.23
  -3 -11  -6  224.75   23.68
  -3 -11  -7   64.44   16.44
  -3 -11  -7   79.25   16.89
  -3 -11  -7   56.65   10.42
  -3 -11  -7   84.58   14.74
  -3 -11  -8  325.25   27.54
  -3 -11  -9  110.31   14.48
  -3 -11  -9   82.44   12.22
  -3 -11  -9   84.85   12.80
  -3 -11 -10  159.78   16.32
  -3 -11 -10  174.52   17.11
  -3 -11 -10  198.48   17.94
  -3 -11 -11   96.85   11.46
  -3 -11 -11   92.64   11.21
  -3 -11 -11   90.47   10.70
  -3 -11 -12   67.88    8.31
  -3 -11 -12   77.60    8.86
  -3 -11 -13    2.89    1.86
  -3 -12   9   13.15    2.92
  -3 -12   9   13.45    3.61
  -3 -12   8   30.57    5.92
  -3 -12   8   38.50    6.60
  -3 -12   7   35.65    7.08
  -3 -12   7   32.16    7.60
   3  12  -7   28.35    5.13
  -3 -12   6   13.97    4.37
   3  12  -6   21.03    5.82
  -3 -12   6   18.58    4.36
  -3 -12   5   13.12    4.75
   3  12  -5    7.91    2.84
  -3 -12   4   37.99   10.40
  -3 -12   4   60.10    9.73
  -3 -12   4   43.73   12.69
  -3 -12   3  104.36   16.52
  -3 -12   3  122.10   22.91
  -3 -12   2    5.62    3.74
  -3 -12   2   25.95   16.22
   3  12  -2   14.14    9.86
  -3 -12   2   11.80    4.48
  -3 -12   1   15.80    5.62
  -3 -12   1    6.87    9.61
   3  12  -1    8.14    9.14
  -3 -12   0   59.50    9.90
  -3 -12   0   80.69   22.76
   3  12   0   74.09   28.89
  -3 -12  -1  180.36   17.08
  -3 -12  -1  173.71   35.03
  -3 -12  -1  167.36   21.50
  -3 -12  -2   87.66   10.78
   3  12   2  110.06   37.11
  -3 -12  -2   71.76   13.69
  -3 -12  -3    9.32   13.21
   3  12   3    9.43   17.51
  -3 -12  -3    6.40    6.47
  -3 -12  -4   35.58   16.09
   3  12   4   60.14   35.07
  -3 -12  -4   35.89    8.08
  -3 -12  -4   26.36    7.98
  -3 -12  -5  245.48   33.31
  -3 -12  -5  236.35   24.16
  -3 -12  -6   21.14    7.29
  -3 -12  -6   16.72    7.21
  -3 -12  -6   10.68    6.01
  -3 -12  -7   12.73    3.39
  -3 -12  -7   16.18    5.57
  -3 -12  -8   39.65    9.32
  -3 -12  -8   21.73    6.36
  -3 -12  -9    0.45    2.49
  -3 -12  -9    2.21    2.04
  -3 -12  -9    4.29    2.94
  -3 -12 -10  174.12   14.80
  -3 -12 -10  142.08   13.65
  -3 -12 -10  171.72   15.23
  -3 -12 -11    3.00    1.31
  -3 -12 -11    1.60    1.72
  -3 -12 -11    1.09    1.29
  -3 -13   7    2.92    1.57
  -3 -13   7  223.50   15.19
   3  13  -6   -0.71    1.39
  -3 -13   6  131.15   13.21
   3  13  -5   74.36    8.96
  -3 -13   5   69.05   10.85
   3  13  -4    5.33    2.44
  -3 -13   4   14.66    5.83
  -3 -13   3  247.13   23.10
  -3 -13   3  278.44   31.22
  -3 -13   2   44.95    8.67
  -3 -13   2   26.73   14.16
  -3 -13   1   11.87    4.88
  -3 -13   1   13.17    8.69
  -3 -13   0    1.31    1.85
  -3 -13   0   13.09   12.02
  -3 -13  -1  346.47   21.91
  -3 -13  -1  398.19   50.03
  -3 -13  -1  382.21   32.02
  -3 -13  -2   -2.42    3.39
  -3 -13  -3   -1.73    8.28
  -3 -13  -3   15.33    8.49
  -3 -13  -4   64.98   18.22
  -3 -13  -4   52.08    9.01
  -3 -13  -4   39.83    9.11
  -3 -13  -5  553.78   48.50
  -3 -13  -5  497.18   33.51
  -3 -13  -6   -1.88    4.63
  -3 -13  -7    1.21    2.70
  -3 -13  -7   -0.34    1.49
  -3 -13  -8   91.89   10.83
  -3 -13  -8   71.52    9.79
  -3 -13  -8   83.55   10.95
  -3 -13  -9  150.32   12.76
  -3 -13  -9  126.76   12.32
  -3 -13  -9  138.17   12.76
  -3 -13 -10   63.95    7.07
  -3 -13 -10   69.01    7.75
  -3 -13 -10   59.46    7.23
  -3 -14   5   29.29    5.62
  -3 -14   5   29.85    6.09
  -3 -14   4    9.17    3.54
   3  14  -4    1.61    1.82
  -3 -14   4    4.78    2.36
   3  14  -3  184.81   14.04
  -3 -14   3  188.17   16.67
  -3 -14   3  170.28   19.54
  -3 -14   2    3.95    3.06
  -3 -14   1   19.42    4.80
  -3 -14   1    9.14    4.92
  -3 -14   0   -0.84    1.98
  -3 -14   0   18.74   10.73
  -3 -14  -1  110.39   24.56
  -3 -14  -2   -1.57    3.80
  -3 -14  -2    1.70    2.65
  -3 -14  -3    1.46    7.51
  -3 -14  -3    6.58    7.52
  -3 -14  -3    7.73    3.27
  -3 -14  -4   14.54    4.67
  -3 -14  -5  316.61   22.76
  -3 -14  -6   10.95    3.10
  -3 -14  -6   -2.14    2.47
  -3 -14  -7   25.97    5.29
  -3 -14  -7   13.80    3.91
  -3 -14  -8   55.57    7.26
  -3 -14  -8   53.40    7.22
   3  15  -2   45.47    5.34
  -3 -15   2   73.39   12.02
   3  15  -1    4.68    2.54
  -3 -15   1    1.95    4.69
  -3 -15   0    5.78    3.06
  -3 -15  -1    4.33    1.65
  -3 -15  -1    8.41    4.82
  -3 -15  -2   73.04   11.18
  -3 -15  -2   55.40    7.70
  -3 -15  -3    0.45    3.08
  -3 -15  -3   -1.85    3.10
  -3 -15  -4   20.04    4.70
  -3 -15  -4   17.21    3.92
  -4  12  -1    4.00    2.87
   4 -12   1    4.03    3.19
   4 -12   2   30.98   12.40
   4 -12   2   26.47    5.32
   4 -11  -4    1.51    1.13
   4 -11  -4   19.08    5.07
   4 -11  -3   58.42   11.60
   4 -11  -3   83.38   16.38
  -4  11   3   90.14   12.65
   4 -11  -3   84.17   11.16
   4 -11  -3   56.50    8.65
   4 -11  -2   30.75   11.77
  -4  11   2   37.79    8.81
   4 -11  -2   24.53    7.34
   4 -11  -2   21.76    6.16
   4 -11  -1   37.46   12.22
   4 -11  -1   62.59   11.94
   4 -11   0   26.84   11.41
   4 -11   1   96.26   17.95
   4 -11   1  103.09   12.95
   4 -11   2   15.79    6.25
   4 -11   2    6.94    4.24
   4 -11   3   80.30   12.55
   4 -11   3   79.30   12.06
   4 -11   4   12.02    6.47
   4 -11   5    0.33    2.51
   4 -11   5    1.19    1.70
  -4  11  -5   68.05    9.30
   4 -11   5   98.80   13.28
   4 -11   6    0.71    1.80
   4 -11   6   -6.06    3.17
   4 -11   6    3.55    6.20
  -4  11  -6    3.53    2.33
   4 -11   6    2.59    4.09
   4 -11   7   41.89    7.12
   4 -11   7   35.53    6.67
   4 -11   7   33.00    7.35
   4 -11   7   45.94    7.95
   4 -10  -6  114.27   13.99
   4 -10  -6  127.85   12.64
   4 -10  -5  470.23   33.90
   4 -10  -5  524.02   28.95
  -4  10   4   69.43   11.56
   4 -10  -4   43.31    9.73
   4 -10  -4   45.30    8.78
   4 -10  -3  118.69   22.89
   4 -10  -3  150.80   21.89
   4 -10  -3  106.08   12.99
   4 -10  -2   -4.19    8.08
   4 -10  -2    7.88    5.71
   4 -10  -2   -1.12    6.38
   4 -10  -1   33.40   15.59
   4 -10  -1   70.29   20.21
   4 -10  -1   70.71   16.35
   4 -10   0  215.55   45.73
   4 -10   0  101.34   23.86
   4 -10   0  183.49   32.70
   4 -10   1  567.42   49.34
   4 -10   1  538.11   34.27
   4 -10   2   95.37   35.07
   4 -10   2   80.18   17.52
   4 -10   3  178.26   16.73
   4 -10   3  154.78   20.44
   4 -10   3  202.86   24.57
   4 -10   4   66.81   11.74
   4 -10   4   81.59   22.72
   4 -10   4   72.11   15.85
   4 -10   4   70.95   13.02
   4 -10   5  167.35   23.67
   4 -10   5  178.73   20.72
   4 -10   6    3.95    4.43
   4 -10   6   -7.57    9.01
   4 -10   7   -1.19    2.74
   4 -10   7   -5.60    5.11
  -4  10  -7    4.54    3.09
   4 -10   8  282.42   24.24
   4 -10   8  325.58   24.13
   4 -10   9  164.04   15.73
   4 -10   9  171.39   15.46
   4 -10  10    3.82    2.37
   4  -9  -8   -0.30    1.26
   4  -9  -8   -0.49    0.59
   4  -9  -7  192.71   18.70
   4  -9  -7  203.48   17.53
   4  -9  -6    6.47    5.33
   4  -9  -6    1.13    4.86
   4  -9  -5  296.26   31.64
   4  -9  -5  242.58   20.73
   4  -9  -5  270.00   26.67
   4  -9  -4   28.72    7.51
   4  -9  -4   20.98    7.59
   4  -9  -4   15.74    5.66
   4  -9  -3    8.29    6.11
   4  -9  -3   19.26    9.43
   4  -9  -3   30.67    7.99
   4  -9  -2   30.17   16.92
   4  -9  -2   28.65   12.34
   4  -9  -2   42.69    9.25
   4  -9  -2   42.32   18.01
   4  -9  -1   53.81   24.33
   4  -9  -1   61.48   69.97
  -4   9   1    8.75    8.88
   4  -9  -1   46.37   23.18
   4  -9  -1   21.42    7.66
   4  -9  -1   13.11   16.27
   4  -9   0   35.90   17.23
   4  -9   0   55.00   39.19
   4  -9   0  101.14   36.63
  -4   9   0   34.33   18.50
   4  -9   0   77.92   21.39
   4  -9   0   91.53   23.71
   4  -9   1  342.17   49.00
  -4   9  -1  278.01   55.92
   4  -9   1  321.02   41.47
   4  -9   2   -0.55    2.14
   4  -9   2  -31.87   29.20
   4  -9   2   -1.86   10.52
   4  -9   2   14.14   86.34
   4  -9   2   -7.55    9.85
   4  -9   3  106.34   17.65
   4  -9   3  122.44   28.83
  -4   9  -3   87.57   28.27
   4  -9   3  101.36   19.22
   4  -9   4   53.52   20.37
   4  -9   4   51.48   14.74
   4  -9   4   30.13   22.63
  -4   9  -4   50.25   20.45
   4  -9   4   35.56   10.81
   4  -9   5   38.88   19.96
   4  -9   5   19.86    9.90
   4  -9   6   61.14   19.57
   4  -9   6   63.14   16.14
   4  -9   7    8.39    7.87
  -4   9  -7    8.11    2.64
   4  -9   8   63.29   11.95
   4  -9   8   49.19   11.57
  -4   9  -8   47.78    8.09
  -4   9  -8   43.87    6.71
  -4   9  -9   12.00    3.34
   4  -9   9   15.38    5.39
  -4   9 -10    8.78    1.86
  -4   9 -11   32.44    4.70
   4  -9  11   33.16    6.38
   4  -9  11   27.71    5.90
   4  -8  -9  107.98   10.55
   4  -8  -8   59.86    9.69
   4  -8  -8    1.10    0.95
   4  -8  -7   75.46   13.80
   4  -8  -6   92.99   13.31
   4  -8  -6  130.85   21.57
   4  -8  -6  110.98   17.97
   4  -8  -5   18.04    6.43
   4  -8  -5   13.70    8.33
   4  -8  -5   21.50    5.76
   4  -8  -4   17.65    6.58
   4  -8  -4   49.78   14.95
   4  -8  -4   37.37    8.76
   4  -8  -3   66.92   21.70
   4  -8  -3   94.37   24.40
   4  -8  -3  101.87   42.26
  -4   8   3   84.86   24.74
   4  -8  -3   85.57   20.58
   4  -8  -3   72.84   12.31
   4  -8  -2  974.37   98.97
   4  -8  -2  752.94   69.82
  -4   8   2  830.43   89.24
   4  -8  -2  821.37  152.72
   4  -8  -2  796.29   44.80
   4  -8  -1   -4.04   23.36
   4  -8  -1    7.09    6.58
   4  -8  -1   12.79   45.96
  -4   8   1    3.20    8.17
   4  -8  -1    2.30    2.68
   4  -8   0  -25.19   32.48
   4  -8   0    6.70    5.61
  -4   8   0   14.04   22.63
  -4   8  -1   10.83    6.09
   4  -8   2  327.27   96.27
   4  -8   2  365.23  177.22
   4  -8   3  177.98   70.52
   4  -8   3   59.66   49.17
  -4   8  -3  101.87   32.94
   4  -8   3   99.02   21.73
   4  -8   4   60.06   22.71
   4  -8   4  -10.07   61.17
  -4   8  -4   52.46   21.04
   4  -8   4   61.41   14.67
   4  -8   5  130.37   61.63
  -4   8  -5  171.99   35.79
   4  -8   5  233.61   42.43
  -4   8  -5  198.94   18.11
   4  -8   6  380.88   49.92
   4  -8   6  369.59   85.36
  -4   8  -6  251.93   40.32
  -4   8  -6  291.73   23.40
   4  -8   7   22.19   11.28
  -4   8  -7   29.62   13.61
  -4   8  -7   15.31    3.98
   4  -8   8    2.81    3.74
  -4   8  -8    1.48    2.89
  -4   8  -8    6.27    3.96
  -4   8  -9   50.09    8.20
  -4   8 -10   71.11    9.39
   4  -8  10   69.39   12.73
   4  -8  10   81.68   14.99
  -4   8 -11  184.98   14.25
   4  -8  11  166.66   18.35
   4  -8  11  155.04   16.70
  -4   8 -12   27.34    4.57
   4  -8  12   29.49    5.83
   4  -8  12   24.77    4.81
   4  -8  12   19.97    5.84
  -4   8 -13   65.09    6.12
   4  -8  13   68.81    7.78
   4  -8  13   68.13    7.26
   4  -8  13   74.57    7.17
   4  -7 -10  575.27   25.59
   4  -7  -9  302.20   17.84
   4  -7  -9  297.47   19.76
   4  -7  -8  179.21   15.86
   4  -7  -8  172.40   18.94
   4  -7  -8  140.98   18.15
   4  -7  -8  163.92   18.06
   4  -7  -7   30.59    6.81
   4  -7  -7   25.95    7.71
   4  -7  -7   14.67    6.30
   4  -7  -6  265.34   22.04
   4  -7  -6  242.77   23.62
   4  -7  -6  236.54   21.46
   4  -7  -5   14.00    7.12
   4  -7  -5    8.53    7.74
   4  -7  -5   11.55    4.67
   4  -7  -5   12.46   10.08
   4  -7  -5   13.08    5.73
   4  -7  -4   42.33   17.09
   4  -7  -4   39.81   16.18
   4  -7  -4   18.04   12.19
  -4   7   4   16.76   13.51
   4  -7  -4   35.03   15.09
   4  -7  -4   32.57    8.60
   4  -7  -3  159.34   36.48
   4  -7  -3  180.12   65.93
  -4   7   3  179.88   37.58
   4  -7  -3  200.70   20.08
   4  -7  -2 1745.72  144.36
  -4   7   2 1580.03  127.16
   4  -7  -2 1912.67  277.79
   4  -7  -2 1678.82   69.49
   4  -7  -1   49.79   69.40
  -4   7   1   69.00   28.93
   4  -7  -1   64.95   31.41
   4  -7  -1   41.43   16.10
   4  -7   0  105.41   88.23
  -4   7   0   -3.70   15.63
   4  -7   0   52.02   56.66
  -4   7  -1   27.65   27.50
   4  -7   2 1162.22  355.34
   4  -7   2  660.60  170.34
   4  -7   3   91.99  119.70
  -4   7  -3   94.92   31.45
   4  -7   3  154.89   62.32
   4  -7   4  401.46  140.58
  -4   7  -4  397.93   64.64
  -4   7  -4  361.96   25.25
   4  -7   4  478.40   83.06
   4  -7   5  456.16   69.56
   4  -7   5  428.00  113.90
  -4   7  -5  343.77   53.34
  -4   7  -5  375.40   27.55
   4  -7   6  508.18   64.78
   4  -7   6  634.13   65.02
  -4   7  -6  456.80   56.57
   4  -7   6  712.31  127.46
  -4   7  -6  496.44   33.92
   4  -7   7  177.05   35.73
   4  -7   7  162.87   53.11
  -4   7  -7  116.10   26.55
  -4   7  -7  152.74   18.51
   4  -7   7  141.10   30.34
   4  -7   8   20.67    9.58
   4  -7   8   20.42   14.16
  -4   7  -8   29.43    7.83
   4  -7   9  201.51   42.06
  -4   7  -9  172.81   18.35
  -4   7 -10   69.57   11.17
  -4   7 -11  270.39   19.94
   4  -7  11  241.57   24.22
   4  -7  11  263.29   27.63
  -4   7 -12   99.34   10.19
   4  -7  12  127.02   15.98
   4  -7  12  122.54   14.14
  -4   7 -13  135.16   10.48
   4  -7  13  130.48   13.84
   4  -7  13  118.82   12.15
   4  -7  14   -0.38    1.02
   4  -7  14    4.56    2.47
   4  -7  14    1.55    1.87
   4  -6 -11    2.57    1.35
   4  -6 -11    0.64    0.95
   4  -6 -10  280.47   18.56
   4  -6 -10  239.04   20.11
   4  -6 -10  274.53   18.47
   4  -6  -9   31.40    6.23
   4  -6  -9   37.73    9.70
   4  -6  -9   22.42    6.39
   4  -6  -9   35.00    7.81
   4  -6  -8   52.79    9.33
   4  -6  -8   49.61   10.74
   4  -6  -8   31.13   10.32
   4  -6  -8   41.55   10.07
   4  -6  -7  149.35   16.40
   4  -6  -7  104.16   15.49
   4  -6  -7  112.22   18.47
   4  -6  -7  118.65   19.05
   4  -6  -6   69.19   11.83
   4  -6  -6   51.85   17.05
   4  -6  -6   52.88   10.93
   4  -6  -6   47.81   11.64
   4  -6  -6   68.60   11.52
   4  -6  -5   19.13    4.99
   4  -6  -5   29.58   15.41
   4  -6  -5   30.07   10.22
   4  -6  -5   24.63    6.71
   4  -6  -5   10.65   16.34
   4  -6  -5   21.01    7.38
   4  -6  -5   25.21    6.87
   4  -6  -4   45.02   14.34
   4  -6  -4   65.77   20.80
   4  -6  -4   20.74   17.98
  -4   6   4   51.25   18.76
   4  -6  -4   44.70   11.02
   4  -6  -4   59.75   10.04
   4  -6  -3   17.36   11.21
   4  -6  -3   32.05   13.89
   4  -6  -3   30.33   43.55
  -4   6   3   37.00   19.15
   4  -6  -3   25.66    7.45
   4  -6  -3   27.06    7.92
   4  -6  -2  797.78  106.07
   4  -6  -2  758.12  167.45
  -4   6   2  673.68   77.26
   4  -6  -1   89.69   62.34
  -4   6   1   27.58   20.52
   4  -6  -1   59.90   43.23
   4  -6   0   80.88  112.33
  -4   6   0   71.88   28.14
   4  -6   0   72.54   45.16
  -4   6  -1   16.91   18.94
  -4   6  -2  141.18   45.17
   4  -6   2  157.97   74.85
   4  -6   3  191.58  115.73
   4  -6   3  388.60  103.27
  -4   6  -3  202.38   17.60
   4  -6   4   52.45   38.60
   4  -6   4   84.66   21.79
  -4   6  -4  114.53   33.43
   4  -6   4   75.38   34.24
  -4   6  -4  101.90   13.57
   4  -6   5   50.81   17.58
  -4   6  -5   41.34   18.69
   4  -6   5   28.86   43.89
   4  -6   5   52.10   27.16
  -4   6  -5   56.63   10.91
   4  -6   6  326.14   42.90
   4  -6   6  212.85   83.58
  -4   6  -6  260.41   42.69
   4  -6   6  229.95   47.22
   4  -6   7  196.11   35.91
   4  -6   7  101.85   47.39
  -4   6  -7  118.21   27.33
   4  -6   7  130.49   30.06
   4  -6   8   -8.53    6.78
  -4   6  -8   -1.53    4.81
   4  -6   8   -5.89   14.05
   4  -6   9   19.14   15.48
   4  -6  10   10.07   12.83
  -4   6 -10    5.59    5.68
  -4   6 -11  104.72   13.06
  -4   6 -12    8.76    3.71
   4  -6  12    1.83    3.70
   4  -6  12   14.44    6.25
   4  -6  13   30.94    7.17
   4  -6  13   30.34    7.55
  -4   6 -14    5.22    2.22
   4  -6  14    4.84    2.23
   4  -6  14   10.17    3.73
   4  -5 -12  261.68   13.81
   4  -5 -12  197.54   12.64
   4  -5 -11    1.49    1.59
   4  -5 -11   -0.39    1.53
   4  -5 -10   40.12    7.51
   4  -5 -10   35.32    8.06
   4  -5 -10   31.64    6.51
   4  -5  -9   50.01    8.30
   4  -5  -9   59.62   10.27
   4  -5  -9   51.47    9.64
   4  -5  -9   40.07   10.03
   4  -5  -8    2.98    2.53
   4  -5  -8    6.58    7.48
   4  -5  -8   -4.16    2.96
   4  -5  -8    3.38    3.90
   4  -5  -8   -2.17    3.62
   4  -5  -7  617.68   41.39
   4  -5  -7  632.51   36.14
   4  -5  -7  420.61   33.31
   4  -5  -7  563.11   39.73
   4  -5  -7  506.25   41.54
   4  -5  -7  448.76   39.80
   4  -5  -6   89.84   14.79
   4  -5  -6  111.53   14.64
   4  -5  -6   75.71   19.80
   4  -5  -6   92.88   15.40
   4  -5  -6   85.28   18.00
   4  -5  -6   95.11   12.92
   4  -5  -6   87.78   15.85
   4  -5  -5  816.17   51.24
   4  -5  -5  824.53   45.21
   4  -5  -5  837.19   68.76
   4  -5  -5  707.70   99.25
   4  -5  -5  759.87   49.22
   4  -5  -5  786.03   41.50
   4  -5  -4   20.12    8.20
   4  -5  -4   30.11    7.10
   4  -5  -4    7.29    9.60
   4  -5  -4   37.75   13.39
   4  -5  -4   22.11   21.26
  -4   5   4   17.88    9.81
   4  -5  -4   17.02    6.03
   4  -5  -4   23.31    5.26
   4  -5  -3   18.86    9.82
   4  -5  -3   31.44   25.22
  -4   5   3    9.70    8.67
   4  -5  -3   -7.85   50.32
   4  -5  -3   19.26    6.47
   4  -5  -3   11.97    4.56
   4  -5  -2   61.30   32.25
  -4   5   2   93.74   28.39
   4  -5  -1   11.27   40.23
  -4   5   1   13.49   14.07
   4  -5   0  288.04   94.06
  -4   5   0  172.47   44.89
  -4   5  -1  718.15  106.12
  -4   5  -2   19.50    4.78
   4  -5   2    8.08   48.81
  -4   5  -2   18.50   28.97
  -4   5  -3  387.71   25.11
   4  -5   3  447.98   96.66
   4  -5   4   27.13   18.19
  -4   5  -4   15.35    4.54
   4  -5   4   13.96   10.55
  -4   5  -4   43.59   20.31
   4  -5   5   27.17   29.50
   4  -5   5   15.76    8.60
  -4   5  -5   16.43   12.36
   4  -5   6   35.51   16.84
   4  -5   6   23.89   39.01
  -4   5  -6   29.23   16.72
   4  -5   6   24.53    9.85
   4  -5   7   10.42   11.12
   4  -5   7   11.67   10.89
   4  -5   7  -18.19   40.19
  -4   5  -7    1.68    4.45
   4  -5   8  353.93   48.84
  -4   5  -8  298.91   39.96
   4  -5   8  276.12   70.51
   4  -5   9  368.98   53.84
   4  -5  10   25.55   16.53
  -4   5 -10    6.87    3.78
  -4   5 -11   29.28    7.83
   4  -5  11   17.80    9.47
  -4   5 -11   25.26    5.80
   4  -5  12  268.79   30.28
  -4   5 -12  231.73   16.63
  -4   5 -13   23.89    5.38
   4  -5  13   34.94    8.46
   4  -5  13   28.96    7.24
  -4   5 -13   21.03    3.84
  -4   5 -14    6.49    3.10
   4  -5  14    8.95    4.01
   4  -5  14   11.18    4.19
  -4   5 -14    5.80    1.99
  -4   5 -15   11.40    2.96
   4  -5  15   10.92    2.71
   4  -4 -13  395.61   17.92
   4  -4 -13  280.58   15.74
   4  -4 -12  325.98   18.89
   4  -4 -12  285.24   18.88
   4  -4 -11    5.15    3.40
   4  -4 -11   -3.18    3.71
   4  -4 -10   12.36    3.47
   4  -4 -10   12.81    4.03
   4  -4 -10    3.06    2.67
   4  -4 -10    6.18    2.71
   4  -4  -9  201.18   16.81
   4  -4  -9  212.94   18.25
   4  -4  -9  202.27   28.20
   4  -4  -9  215.96   19.20
   4  -4  -9  193.11   22.71
   4  -4  -9  155.84   18.33
   4  -4  -8   39.50    9.11
   4  -4  -8   38.69    8.77
   4  -4  -8   35.85    8.16
   4  -4  -8   47.67   10.37
   4  -4  -8   41.88   15.40
   4  -4  -8   29.08    9.58
   4  -4  -8   37.37   10.44
   4  -4  -8   32.58    9.50
   4  -4  -7  553.68   38.97
   4  -4  -7  572.20   35.22
   4  -4  -7  499.54   39.27
   4  -4  -7  482.34   40.55
   4  -4  -7  413.19   38.01
   4  -4  -6  127.79   17.98
   4  -4  -6  159.26   18.33
   4  -4  -6  122.70   24.83
   4  -4  -6  132.54   18.89
   4  -4  -6  113.85   18.42
   4  -4  -6  110.22   21.09
   4  -4  -6  139.76   15.79
   4  -4  -5 1131.80   54.42
   4  -4  -5  994.10   56.21
   4  -4  -5  981.08   73.31
   4  -4  -5  964.16   55.34
   4  -4  -5  995.98   46.68
   4  -4  -4   52.38   11.82
   4  -4  -4   58.26   11.71
   4  -4  -4   24.19    7.47
   4  -4  -4   62.30   17.49
   4  -4  -4   60.78   42.52
  -4   4   4   59.11   18.17
   4  -4  -4   52.83    8.48
   4  -4  -4   59.32   11.97
   4  -4  -3  213.57   22.38
  -4   4   3  234.55   36.01
   4  -4  -3  209.30   17.35
  -4   4   2  146.14   30.50
  -4   4   1  164.59   37.05
  -4   4   0  218.14   46.10
  -4   4  -1 1646.56  151.94
  -4   4  -2  331.96   20.31
  -4   4  -2  408.34   71.75
  -4   4  -3  429.30   25.90
   4  -4   3  471.42   42.59
   4  -4   4  429.15   41.22
  -4   4  -4  542.79   71.87
   4  -4   5  779.28   59.24
  -4   4  -5  790.30   80.41
   4  -4   6  -11.36   12.49
   4  -4   6    6.22    4.33
  -4   4  -6    7.25    9.42
  -4   4  -7   16.12    7.45
   4  -4   7  -15.00   18.93
   4  -4   7   10.43    7.76
  -4   4  -7    9.31    9.27
  -4   4  -8  641.32   41.54
  -4   4  -8  555.07   34.37
  -4   4  -8  535.38   51.82
   4  -4   8  610.40  105.15
   4  -4   8  594.49   62.97
  -4   4  -9  410.23   33.54
  -4   4 -10    1.39    3.89
  -4   4 -11    2.85    5.10
  -4   4 -11   -0.46    1.53
  -4   4 -12  474.00   29.59
  -4   4 -12  503.85   28.90
  -4   4 -13   49.94    8.37
   4  -4  13   37.89   10.44
  -4   4 -13   48.34    7.17
  -4   4 -14    4.21    3.07
   4  -4  14    4.91    4.47
   4  -4  14    7.93    4.67
  -4   4 -15   19.63    3.79
  -4   4 -15   16.08    3.06
  -4   4 -16  259.47   12.01
   4  -3 -13  128.72   10.83
   4  -3 -12  138.86    9.90
   4  -3 -12  161.52   13.28
   4  -3 -12  142.61   13.60
   4  -3 -11    0.26    1.42
   4  -3 -11   -2.06    3.19
   4  -3 -11   -1.50    3.04
   4  -3 -11    2.47    3.21
   4  -3 -10  243.19   18.77
   4  -3 -10  224.05   17.49
   4  -3 -10  231.28   19.70
   4  -3 -10  222.79   22.46
   4  -3 -10  218.32   18.28
   4  -3  -9   -1.00    3.17
   4  -3  -9    3.33    5.03
   4  -3  -9    4.61    4.57
   4  -3  -9    0.50    1.67
   4  -3  -9    1.51    3.60
   4  -3  -9    4.71    5.08
   4  -3  -8   39.99    9.31
   4  -3  -8   40.72    8.48
   4  -3  -8   45.50   11.27
   4  -3  -8   32.82    9.78
   4  -3  -8   33.51   12.63
   4  -3  -8   51.00   13.03
   4  -3  -8   29.61   10.19
   4  -3  -8   34.23   10.39
   4  -3  -7  408.86   31.91
   4  -3  -7  427.92   30.03
   4  -3  -7  368.33   33.48
   4  -3  -7  298.01   31.67
   4  -3  -7  362.95   33.43
   4  -3  -6   23.64    8.35
   4  -3  -6   26.73    7.44
   4  -3  -6   27.50   10.93
   4  -3  -6   21.34    8.39
   4  -3  -6    9.89    4.72
   4  -3  -6   18.63    8.95
   4  -3  -5  561.38   40.10
   4  -3  -5  719.16   42.47
   4  -3  -5  609.72   54.95
   4  -3  -5  644.80   42.08
  -4   3   5  641.23   55.68
   4  -3  -5  555.15   39.46
   4  -3  -4  247.30   25.11
   4  -3  -4  384.17   30.53
  -4   3   4  289.46   37.54
   4  -3  -4  332.09   36.96
  -4   3   3    3.06    9.32
  -4   3   2  218.24   35.61
  -4   3   1   50.04   19.11
  -4   3   0  361.79   57.36
  -4   3  -1  631.85   77.83
  -4   3  -2   40.91   20.51
  -4   3  -2   34.25    4.81
   4  -3   3  711.05   48.21
  -4   3  -3  623.95   31.53
   4  -3   4   39.35   11.84
  -4   3  -4   13.42    8.57
   4  -3   5  116.10   19.10
  -4   3  -5  130.21   14.35
  -4   3  -5  134.06   31.86
  -4   3  -6  456.46   52.83
   4  -3   6  488.21   43.95
  -4   3  -6  528.60   33.58
  -4   3  -7    8.46    7.73
  -4   3  -7   10.41    5.41
  -4   3  -8  385.52   41.36
  -4   3  -8  395.78   27.28
  -4   3  -8  475.58   36.64
  -4   3  -9   38.57   11.01
  -4   3  -9   32.25    8.56
  -4   3 -10    2.12    2.89
  -4   3 -10    3.97    3.26
  -4   3 -11   50.68    9.39
  -4   3 -11   46.92    8.31
  -4   3 -12  101.20   12.75
  -4   3 -12  127.75   14.31
  -4   3 -13   16.51    4.15
   4  -3  13    9.59    4.39
  -4   3 -13   14.48    4.57
  -4   3 -14    7.85    1.46
   4  -3  14    6.48    2.52
  -4   3 -14    9.13    3.31
  -4   3 -15    7.16    2.76
  -4   3 -15    6.91    2.42
  -4   3 -16   15.90    3.09
  -4   3 -16   97.70    7.31
  -4   3 -16   94.06    7.31
   4  -2 -13    0.95    1.32
   4  -2 -13    2.54    1.20
   4  -2 -12    8.52    2.84
   4  -2 -12   11.33    3.52
   4  -2 -12    2.77    1.35
   4  -2 -11    2.97    2.13
   4  -2 -11    8.32    4.38
   4  -2 -11    2.04    2.29
   4  -2 -10  753.16   39.10
   4  -2 -10  693.26   37.08
   4  -2 -10  656.36   36.53
   4  -2 -10  690.72   39.20
   4  -2 -10  694.27   42.07
   4  -2 -10  720.19   35.57
   4  -2  -9  224.39   22.11
   4  -2  -9  250.06   25.17
   4  -2  -9  230.25   21.14
   4  -2  -9  249.81   25.54
   4  -2  -9  240.20   22.10
   4  -2  -8  154.54   17.40
   4  -2  -8  148.50   20.97
   4  -2  -8  125.35   18.31
   4  -2  -8  138.47   24.88
   4  -2  -8  176.66   23.46
   4  -2  -8  164.81   21.06
   4  -2  -8  147.79   19.88
   4  -2  -7  295.60   25.49
   4  -2  -7  236.17   23.62
   4  -2  -7  247.51   28.38
   4  -2  -7  246.25   26.08
   4  -2  -7  191.96   24.43
   4  -2  -6  214.08   22.79
   4  -2  -6  248.36   23.63
   4  -2  -6  187.03   29.40
   4  -2  -6  207.83   24.87
   4  -2  -6  203.42   23.62
   4  -2  -5   31.50    8.14
   4  -2  -5   27.55    7.32
   4  -2  -5   29.65    8.47
  -4   2   5   13.68    6.16
   4  -2  -5   40.64   14.30
  -4   2   4  114.91   21.67
   4  -2  -4  139.99   23.73
  -4   2   3  119.66   23.17
  -4   2   2 2505.53  131.32
  -4   2   1   38.81   16.57
  -4   2   0  138.88   33.20
   4  -2   0  172.38   43.19
  -4   2  -1   81.99   28.82
   4  -2   1  156.26   38.77
  -4   2  -2  419.16   57.12
   4  -2   2  508.87   70.19
   4  -2   3  498.31   35.44
  -4   2  -3  472.47   25.33
   4  -2   3  570.89   76.17
  -4   2  -4  279.65   42.46
   4  -2   4  242.62   24.16
  -4   2  -4  210.92   17.89
   4  -2   4  279.62   49.74
  -4   2  -5  588.92   59.70
  -4   2  -5  556.36   34.38
   4  -2   5  571.13   65.06
  -4   2  -6  931.63   71.42
   4  -2   6  914.64   79.05
  -4   2  -6  968.30   47.20
  -4   2  -7   84.62   18.83
  -4   2  -7   73.81   11.36
  -4   2  -7   87.49   14.24
  -4   2  -8    6.50    8.04
  -4   2  -8   -1.63    7.85
  -4   2  -9  160.41   17.42
  -4   2 -10   17.86    6.34
  -4   2 -10   11.86    4.88
  -4   2 -11  201.97   19.87
  -4   2 -11  178.89   17.86
  -4   2 -11  195.29   18.00
  -4   2 -11  203.87   19.41
  -4   2 -12   18.62    5.95
  -4   2 -12   17.81    5.63
  -4   2 -12   20.83    6.41
  -4   2 -12   23.67    6.10
  -4   2 -12   24.51    5.82
  -4   2 -13  148.26   15.16
  -4   2 -13  175.16   16.08
  -4   2 -14   14.21    4.01
  -4   2 -14    7.88    3.25
  -4   2 -15  125.33   10.82
  -4   2 -15  133.93   11.10
  -4   2 -15  131.20   11.69
  -4   2 -16    8.85    2.80
  -4   2 -16    1.14    0.84
  -4   2 -17   71.17    6.12
   4  -1 -14   26.70    3.86
   4  -1 -14   30.61    4.61
   4  -1 -13    6.36    2.27
   4  -1 -13    2.57    2.06
   4  -1 -13    3.73    1.52
   4  -1 -13    5.23    1.64
   4  -1 -12    2.84    1.89
   4  -1 -12   -0.36    2.20
   4  -1 -12    0.33    1.62
   4  -1 -12    3.25    3.10
   4  -1 -11    1.95    4.03
   4  -1 -11    0.41    1.98
   4  -1 -11    5.44    4.05
   4  -1 -11    1.51    3.03
   4  -1 -10 1093.57   51.80
   4  -1 -10 1198.60   54.30
   4  -1 -10  971.02   49.77
   4  -1 -10 1028.53   53.00
   4  -1 -10 1117.42   58.04
   4  -1  -9  764.19   47.00
   4  -1  -9  715.54   43.86
   4  -1  -9  635.37   39.00
   4  -1  -9  677.98   42.67
   4  -1  -9  741.36   50.39
   4  -1  -8  397.93   35.84
   4  -1  -8  344.88   36.09
   4  -1  -8  379.75   29.26
   4  -1  -8  374.18   30.89
   4  -1  -8  319.50   27.90
   4  -1  -7  359.03   29.16
   4  -1  -7  277.13   33.39
   4  -1  -7  209.93   25.88
   4  -1  -7  325.43   32.21
   4  -1  -7  184.26   28.43
   4  -1  -7  289.78   26.51
   4  -1  -7  228.63   25.62
   4  -1  -6  407.16   31.63
   4  -1  -6  504.42   37.00
   4  -1  -6  372.51   40.83
   4  -1  -6  445.08   37.00
   4  -1  -6  377.17   35.06
   4  -1  -6  391.36   31.27
   4  -1  -5    5.33    5.30
   4  -1  -5   -0.64    2.77
   4  -1  -5   -2.24    5.09
   4  -1  -5   -2.13    4.44
   4  -1  -5   -7.03    8.38
  -4   1   4    7.83    4.06
   4  -1  -4    1.98    4.31
  -4   1   3  505.04   47.90
  -4   1   2 5343.51  208.16
   4  -1  -2 4827.76  212.03
  -4   1   1  473.18   52.39
  -4   1   0  212.46   34.54
   4  -1   0  205.28   35.27
  -4   1  -1  131.02   27.53
   4  -1   1  200.59   35.96
  -4   1  -2  729.30   72.66
   4  -1   2  959.86   84.87
   4  -1   3  497.86   32.38
   4  -1   3  602.88   65.31
   4  -1   4  739.78   42.08
  -4   1  -4  974.61   76.89
   4  -1   4  895.32   80.46
  -4   1  -4  816.30   37.76
  -4   1  -5 2459.01   92.46
  -4   1  -5 2250.92   86.28
   4  -1   5 2482.34  134.18
  -4   1  -6 1318.61   81.43
  -4   1  -6 1190.59   59.87
  -4   1  -6 1221.32   52.56
   4  -1   6 1197.37   81.26
  -4   1  -7  203.40   17.87
  -4   1  -7  208.37   28.32
   4  -1   7  217.40   29.16
  -4   1  -8  170.89   23.57
  -4   1  -9  209.03   18.86
  -4   1  -9  177.50   18.21
  -4   1 -10   64.13   10.90
  -4   1 -10   55.63    9.61
  -4   1 -10   56.22   10.53
  -4   1 -10   39.72    9.13
  -4   1 -11  677.48   39.05
  -4   1 -11  763.03   43.12
  -4   1 -11  675.94   38.60
  -4   1 -11  755.95   40.64
  -4   1 -11  745.81   39.75
  -4   1 -12  154.66   15.90
  -4   1 -12  167.12   17.44
  -4   1 -12  145.72   15.99
  -4   1 -12  143.85   14.58
  -4   1 -12  161.92   16.62
  -4   1 -13  401.76   25.60
  -4   1 -13  395.89   26.30
  -4   1 -13  379.47   23.26
  -4   1 -13  447.74   27.43
  -4   1 -14    8.99    3.54
  -4   1 -14    4.60    3.46
  -4   1 -15  181.89   12.93
  -4   1 -15  194.32   13.53
  -4   1 -15  177.61   13.03
  -4   1 -16   49.02    6.18
  -4   1 -16   38.74    5.47
  -4   1 -16   39.27    4.94
  -4   1 -17    0.83    0.67
  -4   1 -17  111.13    8.46
   4   0 -14    2.50    1.37
   4   0 -14    4.93    2.27
   4   0 -13   33.51    4.89
   4   0 -13   29.05    5.29
   4   0 -13   24.30    4.61
   4   0 -13   31.78    5.80
   4   0 -12   26.49    5.51
   4   0 -12   27.15    6.00
   4   0 -12   27.06    5.34
   4   0 -12   24.47    5.98
   4   0 -11    3.93    3.09
   4   0 -11    2.85    2.67
   4   0 -11    1.38    1.49
   4   0 -11    4.42    5.28
   4   0 -11    3.38    4.30
   4   0 -10  566.47   35.39
   4   0 -10  542.82   35.53
   4   0 -10  517.20   33.08
   4   0 -10  495.83   31.12
   4   0 -10  491.35   33.02
   4   0 -10  570.61   38.96
   4   0  -9   86.71   15.52
   4   0  -9   84.95   15.22
   4   0  -9   75.05   12.10
   4   0  -9   69.41   11.27
   4   0  -9   76.07   13.57
   4   0  -9   96.32   14.27
   4   0  -8  143.59   20.92
   4   0  -8  128.21   16.07
   4   0  -8  105.06   21.39
   4   0  -7  277.63   29.66
   4   0  -7  251.24   28.54
   4   0  -7  310.58   30.83
   4   0  -7  254.85   35.22
   4   0  -6  146.27   20.00
   4   0  -6  105.79   16.96
   4   0  -6  112.54   24.14
   4   0  -5  267.04   28.29
   4   0  -5  219.65   27.94
   4   0  -4   96.18   16.18
   4   0  -4   91.55   16.79
  -4   0   3  234.49   30.84
   4   0  -3  244.27   24.42
   4   0  -3  260.78   34.70
   4   0  -2 1012.13   50.55
   4   0  -2 1106.45   72.82
  -4   0   1   67.78   20.03
   4   0  -1   49.56    7.78
   4   0  -1   54.44   15.69
  -4   0   0   45.02   20.60
  -4   0  -1  190.71   33.21
  -4   0  -2  231.49   39.26
   4   0   3  218.56   17.04
  -4   0  -4  112.97   24.82
  -4   0  -5  232.97   33.58
  -4   0  -5  213.32   22.43
  -4   0  -6  898.94   61.18
  -4   0  -6  847.47   50.21
  -4   0  -7   28.29   10.37
  -4   0  -7   19.96    5.11
  -4   0  -7   26.35    7.39
  -4   0  -8   30.53    7.50
  -4   0  -8   27.39    6.05
  -4   0  -9    1.56    3.42
  -4   0  -9    1.74    3.79
  -4   0  -9   -0.55    3.25
  -4   0 -10   29.48    7.60
  -4   0 -10   33.60    7.86
  -4   0 -10   31.16    7.06
  -4   0 -10   34.44    7.29
  -4   0 -10   34.75    7.45
  -4   0 -11  424.09   27.92
  -4   0 -11  448.73   30.04
  -4   0 -11  448.48   30.99
  -4   0 -11  477.47   31.40
  -4   0 -11  410.88   27.93
  -4   0 -11  423.58   28.54
  -4   0 -12    2.20    2.70
  -4   0 -12    4.62    3.89
  -4   0 -12    6.43    2.52
  -4   0 -12   -0.46    5.13
  -4   0 -12    4.51    2.92
  -4   0 -13  146.65   14.29
  -4   0 -13  166.70   16.79
  -4   0 -13  146.44   15.66
  -4   0 -14    3.90    2.33
  -4   0 -14    3.74    2.84
  -4   0 -14    0.43    1.71
  -4   0 -14    4.00    3.17
  -4   0 -15   55.97    6.50
  -4   0 -15   52.30    8.05
  -4   0 -15   71.63    8.95
  -4   0 -16    4.54    2.98
  -4   0 -16    3.90    2.13
  -4   0 -16    4.59    2.41
  -4   0 -17    0.68    0.66
  -4   0 -17   33.65    4.33
   4   1 -14   18.47    3.31
   4   1 -14   29.91    4.18
   4   1 -14   26.77    4.77
   4   1 -13  300.45   17.87
   4   1 -13  301.06   18.02
   4   1 -13  305.25   17.66
   4   1 -13  342.55   21.01
   4   1 -12  345.70   21.45
   4   1 -12  320.28   21.25
   4   1 -12  299.39   19.74
   4   1 -12  326.34   22.57
   4   1 -12  283.91   21.07
   4   1 -11   -4.16    2.67
   4   1 -11    2.02    1.84
   4   1 -11    0.53    3.82
   4   1 -11    1.41    1.68
   4   1 -10   75.74   15.93
   4   1 -10   52.90    9.61
   4   1 -10   53.65    9.59
   4   1 -10   83.93   14.91
   4   1  -9  133.04   18.30
   4   1  -9   95.69   14.15
   4   1  -9  113.58   14.32
   4   1  -9  145.02   21.29
   4   1  -8    3.24    4.47
   4   1  -8   -1.32    4.47
   4   1  -8    6.80    2.77
   4   1  -7  586.81   38.08
   4   1  -7  594.47   40.29
   4   1  -7  487.30   40.79
   4   1  -7  633.91   48.55
   4   1  -6   68.22   12.60
   4   1  -6   72.21   13.32
   4   1  -6  100.08   18.23
   4   1  -6   63.30   17.59
   4   1  -5  970.73   54.82
   4   1  -5 1294.21   66.84
   4   1  -4  140.16   17.57
   4   1  -4  205.14   24.09
  -4  -1   4  188.62   21.98
   4   1  -4  159.04   25.44
   4   1  -4  150.69   18.55
   4   1  -3   11.56    4.71
   4   1  -3    6.43    2.90
   4   1  -3    6.91    5.28
   4   1  -3    4.01    3.54
   4   1  -2   99.16   19.05
  -4  -1   1  129.50   25.05
   4   1  -1  133.72   27.50
  -4  -1   0  410.23   47.69
   4   1   0  385.20   50.16
  -4  -1  -1 1188.53   39.40
  -4  -1  -1 1283.53   91.86
  -4  -1  -2  159.71   31.77
   4   1   2  223.77   40.16
   4   1   3  574.48   25.06
   4   1   3  647.77   64.09
  -4  -1  -4   54.47   16.86
   4   1   4   40.33   15.53
  -4  -1  -5  205.18   28.97
  -4  -1  -5  178.97   21.53
   4   1   5  197.97   31.41
  -4  -1  -6  183.31   23.05
  -4  -1  -6  135.26   14.19
  -4  -1  -7   43.21    7.85
  -4  -1  -7   64.71   12.36
  -4  -1  -8  696.60   35.81
  -4  -1  -8  643.65   36.11
  -4  -1  -8  692.97   37.38
  -4  -1  -9  189.18   18.86
  -4  -1  -9  242.61   20.35
  -4  -1  -9  227.46   21.42
  -4  -1 -10    1.95    2.96
  -4  -1 -10   -0.46    2.34
  -4  -1 -10    7.55    4.15
  -4  -1 -10    6.49    3.78
  -4  -1 -10   -1.06    2.68
  -4  -1 -11   45.87    8.38
  -4  -1 -11   49.83    9.75
  -4  -1 -11   49.77    9.17
  -4  -1 -11   44.15    8.68
  -4  -1 -12  322.75   22.49
  -4  -1 -12  311.92   23.99
  -4  -1 -12  365.00   27.49
  -4  -1 -12  299.98   23.55
  -4  -1 -12  357.38   25.44
  -4  -1 -13   10.15    2.46
  -4  -1 -13   12.71    4.38
  -4  -1 -13   13.54    4.81
  -4  -1 -13    9.92    2.57
  -4  -1 -13   10.55    3.97
  -4  -1 -13   18.12    5.29
  -4  -1 -14    3.23    1.34
  -4  -1 -14    2.25    3.00
  -4  -1 -14    1.32    1.66
  -4  -1 -14    2.89    1.67
  -4  -1 -15   -0.70    1.50
  -4  -1 -15    0.38    1.26
  -4  -1 -15   -0.34    1.92
  -4  -1 -16  299.57   19.16
  -4  -1 -16  269.55   17.23
  -4  -1 -16  296.99   18.32
  -4  -1 -17    0.21    1.17
  -4  -1 -17    1.37    1.02
  -4  -1 -17    1.42    0.83
   4   2 -14    0.14    0.78
   4   2 -14   -0.41    1.03
   4   2 -13  451.87   23.67
   4   2 -13  478.77   22.98
   4   2 -12  625.92   32.58
   4   2 -12  598.68   29.39
   4   2 -12  676.96   34.65
   4   2 -12  599.13   30.77
   4   2 -11    3.20    3.69
   4   2 -11    6.63    2.74
   4   2 -11   10.21    4.42
   4   2 -10   45.17    8.44
   4   2 -10   50.98   10.61
   4   2 -10   41.49    8.29
   4   2 -10   44.31    9.41
   4   2  -9  331.91   30.27
   4   2  -9  298.53   25.26
   4   2  -9  385.11   29.78
   4   2  -9  354.38   29.33
   4   2  -9  304.37   34.83
   4   2  -9  391.14   33.60
  -4  -2   8    1.09    3.22
   4   2  -8    3.43    5.54
   4   2  -8   -1.83    2.58
   4   2  -8   -5.64    4.71
   4   2  -8    1.10    4.97
   4   2  -8    1.07    8.81
   4   2  -7  617.01   38.26
   4   2  -7  575.81   38.95
  -4  -2   7  530.41   34.76
   4   2  -7  656.35   50.32
   4   2  -7  608.37   54.39
   4   2  -6  387.51   30.10
   4   2  -6  462.17   40.55
   4   2  -5 1835.33   80.63
   4   2  -5 1736.34   89.15
   4   2  -4  168.21   19.35
   4   2  -4  192.20   23.22
  -4  -2   4  222.01   23.74
   4   2  -3  251.43   22.57
   4   2  -3  233.84   19.02
  -4  -2   3  290.79   29.69
   4   2  -3  303.40   32.86
   4   2  -2   56.84   14.59
  -4  -2   2   51.57   13.61
  -4  -2   1  473.97   43.15
   4   2  -1  481.24   48.14
   4   2   0  332.08   44.31
  -4  -2  -1 2899.59   89.89
  -4  -2  -2 1139.39   45.35
   4   2   2 1281.72   94.90
   4   2   3  628.37   63.50
  -4  -2  -4   75.43   14.06
   4   2   4   73.86   21.43
  -4  -2  -5  410.01   34.75
  -4  -2  -5  397.69   36.43
   4   2   5  409.47   45.20
   4   2   6    9.98    7.20
  -4  -2  -6    8.52    3.10
  -4  -2  -7   62.28    9.00
  -4  -2  -7   46.86    9.89
   4   2   7   53.40   13.15
  -4  -2  -7   48.72    7.33
  -4  -2  -8 1701.91   66.64
  -4  -2  -8 1604.42   67.45
  -4  -2  -9  582.22   35.10
  -4  -2  -9  662.82   34.55
  -4  -2  -9  557.24   34.76
  -4  -2 -10   62.80    9.67
  -4  -2 -10   69.35   11.66
  -4  -2 -10   87.58   13.45
  -4  -2 -10   66.16   11.22
  -4  -2 -10   72.50   10.74
  -4  -2 -11    0.84    1.62
  -4  -2 -11    1.19    2.46
  -4  -2 -11   -0.55    2.34
  -4  -2 -11   -1.13    2.24
  -4  -2 -11   -1.08    2.65
  -4  -2 -11    0.96    1.70
  -4  -2 -12  407.51   23.84
  -4  -2 -12  402.50   24.69
  -4  -2 -12  392.08   28.39
  -4  -2 -12  349.35   25.01
  -4  -2 -12  344.35   25.05
  -4  -2 -13   78.87    9.32
  -4  -2 -13   68.97    9.90
  -4  -2 -13   93.43   13.26
  -4  -2 -14   32.42    6.94
  -4  -2 -14   53.20    9.70
  -4  -2 -15  103.80   11.92
  -4  -2 -15   55.01    8.30
  -4  -2 -16  521.01   25.51
  -4  -2 -17    4.43    1.96
  -4  -2 -17    3.88    1.47
   4   3 -14   -0.12    0.48
   4   3 -14    4.82    2.22
   4   3 -13    0.35    0.61
   4   3 -13  167.01   13.47
   4   3 -12  174.17   14.89
   4   3 -12  160.88   12.84
   4   3 -12  132.19   13.03
   4   3 -11    9.11    3.52
  -4  -3  11    2.76    1.40
   4   3 -11    8.48    3.92
   4   3 -11    8.84    3.82
   4   3 -11    2.62    3.30
   4   3 -10  193.76   20.87
  -4  -3  10  142.44   15.86
   4   3 -10  161.95   15.79
   4   3 -10  180.00   18.21
   4   3 -10  178.13   26.82
   4   3 -10  183.88   19.34
   4   3  -9   31.55    6.67
  -4  -3   9   30.49    8.15
   4   3  -9   46.20   12.25
   4   3  -9   32.61    8.09
   4   3  -9   35.89   13.04
   4   3  -9   46.73   10.15
   4   3  -8    1.83    2.09
   4   3  -8    0.67    4.47
  -4  -3   8    9.70    4.50
   4   3  -8    6.80    3.55
   4   3  -8   14.53    6.33
   4   3  -8   -1.19    3.84
   4   3  -8    5.54    6.02
   4   3  -7  451.67   32.98
   4   3  -7  429.06   32.14
  -4  -3   7  444.26   33.84
   4   3  -7  413.20   33.45
   4   3  -7  455.43   33.39
   4   3  -7  486.84   45.06
   4   3  -7  470.79   45.93
   4   3  -6   19.64    7.42
  -4  -3   6   12.31    5.06
   4   3  -6   13.15    6.55
   4   3  -5  944.78   54.05
   4   3  -5  848.82   48.64
   4   3  -4  157.42   21.73
   4   3  -4  116.87   16.89
  -4  -3   4  160.18   21.49
  -4  -3   3   68.21   15.09
   4   3  -3   54.20   13.74
   4   3  -3   56.17   11.86
   4   3  -2  170.67   26.53
  -4  -3   2  180.23   25.47
  -4  -3   1    7.50    7.99
  -4  -3   0  263.31   33.12
  -4  -3  -1  580.46   51.99
  -4  -3  -1  580.18   31.27
  -4  -3  -2   10.09    9.88
  -4  -3  -2    2.99    2.51
  -4  -3  -3  664.94   46.13
  -4  -3  -4    3.06    6.91
  -4  -3  -5   21.95    9.82
   4   3   5    5.68    9.90
  -4  -3  -6  389.84   24.39
  -4  -3  -6  422.66   35.02
   4   3   6  475.43   46.66
  -4  -3  -6  424.00   24.18
  -4  -3  -7    4.90    3.45
  -4  -3  -7    6.06    3.26
  -4  -3  -7    4.51    2.59
   4   3   7    6.28    6.06
  -4  -3  -7    4.26    2.78
  -4  -3  -8  541.40   37.09
  -4  -3  -8  471.70   29.26
   4   3   8  502.60   40.75
  -4  -3  -8  536.81   29.02
  -4  -3  -8  597.61   36.43
  -4  -3  -9   71.19   11.44
  -4  -3  -9   81.48   10.33
  -4  -3  -9   90.83   11.42
  -4  -3  -9   69.21   11.98
  -4  -3  -9   77.68   11.31
  -4  -3  -9   71.66   11.43
  -4  -3  -9   72.76    9.89
  -4  -3  -9   79.44   10.57
  -4  -3 -10   -1.23    3.23
  -4  -3 -10    2.20    2.54
  -4  -3 -10   -1.86    2.13
  -4  -3 -10    1.76    3.94
  -4  -3 -10   -1.52    2.61
  -4  -3 -10    5.58    3.70
  -4  -3 -10   -0.96    3.31
  -4  -3 -10    2.39    3.82
  -4  -3 -10    1.33    2.19
  -4  -3 -10    4.79    3.62
  -4  -3 -11  144.39   14.05
  -4  -3 -11  146.75   17.13
  -4  -3 -11  142.17   17.13
  -4  -3 -11  133.82   16.91
  -4  -3 -11  131.43   14.04
  -4  -3 -11  135.07   15.56
  -4  -3 -11  132.65   14.89
  -4  -3 -11  140.63   17.54
  -4  -3 -11  132.17   14.32
  -4  -3 -12  185.53   15.14
  -4  -3 -12  223.21   21.39
  -4  -3 -12  221.02   21.19
  -4  -3 -12  186.62   18.38
  -4  -3 -12  173.78   16.86
  -4  -3 -12  188.71   20.74
  -4  -3 -12  164.11   15.68
  -4  -3 -13    6.40    2.69
  -4  -3 -13    6.47    4.57
  -4  -3 -13    4.62    2.14
  -4  -3 -14    7.12    4.27
  -4  -3 -14    8.93    3.94
  -4  -3 -14    8.27    2.79
  -4  -3 -14    6.73    4.01
  -4  -3 -15    5.30    3.40
  -4  -3 -15    6.12    3.13
  -4  -3 -15    6.48    3.63
  -4  -3 -15    5.08    3.00
  -4  -3 -16  110.20   11.64
  -4  -3 -16   98.96   10.20
  -4  -3 -16  110.99   10.73
  -4  -3 -17    3.36    2.03
  -4  -3 -17    2.84    2.02
  -4  -3 -17    3.80    1.35
   4   4 -14    9.25    2.66
   4   4 -13    1.97    1.85
   4   4 -13    4.31    1.89
   4   4 -12    4.51    3.15
  -4  -4  12    6.75    3.77
   4   4 -12    3.77    2.57
   4   4 -12    0.95    1.60
   4   4 -11    3.52    1.71
   4   4 -11    0.86    2.99
  -4  -4  11    3.75    2.18
   4   4 -11    1.32    1.59
   4   4 -11    4.58    2.64
   4   4 -10  747.36   41.23
   4   4 -10  787.71   37.77
  -4  -4  10  656.89   38.63
   4   4 -10  759.70   38.95
   4   4 -10  827.63   60.44
   4   4 -10  751.35   40.25
   4   4  -9  279.68   24.65
   4   4  -9  309.22   24.36
  -4  -4   9  279.75   24.88
   4   4  -9  278.26   23.34
   4   4  -9  305.76   36.30
   4   4  -9  341.59   28.35
   4   4  -8  192.04   20.41
  -4  -4   8  192.78   22.13
   4   4  -8  223.46   21.86
   4   4  -8  230.63   21.43
   4   4  -8  217.99   20.98
   4   4  -8  206.04   30.18
   4   4  -8  262.80   27.36
   4   4  -7  280.11   25.60
  -4  -4   7  278.76   28.65
   4   4  -7  251.49   23.63
   4   4  -7  272.74   25.08
   4   4  -7  300.95   24.85
   4   4  -7  340.77   38.46
   4   4  -7  339.02   34.70
   4   4  -6  333.03   27.65
  -4  -4   6  333.70   33.64
   4   4  -6  277.41   26.33
   4   4  -6  337.99   27.49
   4   4  -5  124.08   16.82
   4   4  -5  106.84   18.60
   4   4  -4   37.45   12.82
   4   4  -4   32.82   10.07
  -4  -4   4   22.22    5.83
   4   4  -3  237.66   23.73
  -4  -4   3  350.29   36.84
  -4  -4   2 2782.97  126.27
  -4  -4   1  105.73   22.09
  -4  -4   0  160.15   28.04
  -4  -4  -1   33.72   12.33
  -4  -4  -1   26.08    3.68
  -4  -4  -1   21.58    6.75
  -4  -4  -2  163.26   28.47
  -4  -4  -2  190.23   19.73
  -4  -4  -3  220.01   21.29
  -4  -4  -3  183.18   24.01
  -4  -4  -4  288.94   34.72
  -4  -4  -4  323.78   32.57
  -4  -4  -5  761.82   54.32
  -4  -4  -5  773.66   34.74
  -4  -4  -5  761.06   34.78
  -4  -4  -6  882.31   39.53
  -4  -4  -6  973.40   59.62
  -4  -4  -6  926.71   41.52
  -4  -4  -7   14.02    5.54
   4   4   7   17.05   10.43
  -4  -4  -7   15.09    6.26
  -4  -4  -7    8.02    3.20
   4   4   8    0.95    4.74
  -4  -4  -8   -0.79    3.00
  -4  -4  -8    0.90    4.35
  -4  -4  -8   -1.86    4.19
  -4  -4  -9   49.96    9.12
  -4  -4  -9   51.24   13.52
  -4  -4  -9   52.60    8.46
  -4  -4  -9   36.74    9.45
  -4  -4  -9   57.00   10.98
  -4  -4  -9   39.35    7.88
  -4  -4  -9   59.03   11.73
  -4  -4  -9   48.80    9.44
  -4  -4  -9   57.74    8.81
  -4  -4 -10   44.18   10.25
  -4  -4 -10   39.05   10.84
  -4  -4 -10   57.87    8.36
  -4  -4 -10   63.31   13.15
  -4  -4 -10   44.29    9.07
  -4  -4 -10   43.65   10.64
  -4  -4 -10   48.19    9.71
  -4  -4 -10   53.84    8.96
  -4  -4 -11  557.80   28.28
  -4  -4 -11  575.48   36.73
  -4  -4 -11  593.84   38.93
  -4  -4 -11  484.60   29.71
  -4  -4 -11  493.58   30.71
  -4  -4 -11  568.29   34.26
  -4  -4 -11  551.51   38.54
  -4  -4 -11  498.90   28.74
  -4  -4 -12   25.95    7.41
  -4  -4 -12   27.59    8.00
  -4  -4 -12   15.33    4.17
  -4  -4 -12   19.44    4.92
  -4  -4 -12   19.89    6.33
  -4  -4 -12   23.32    6.27
  -4  -4 -12   20.82    4.91
  -4  -4 -13  365.97   25.70
  -4  -4 -13  404.07   27.63
  -4  -4 -13  376.60   24.24
  -4  -4 -13  343.62   23.50
  -4  -4 -13  364.21   29.26
  -4  -4 -14   11.21    4.10
  -4  -4 -14   11.06    4.62
  -4  -4 -14    7.80    3.18
  -4  -4 -15   62.95    9.84
  -4  -4 -15   59.27    8.27
  -4  -4 -15   61.91    8.52
  -4  -4 -16    3.47    1.47
  -4  -4 -16    7.05    3.43
  -4  -4 -16    5.27    3.13
  -4  -4 -17   53.72    6.56
  -4  -4 -17   54.84    6.14
  -4  -4 -17   54.38    6.20
   4   5 -13   -1.20    1.39
  -4  -5  13    2.93    1.03
   4   5 -13    3.05    1.69
  -4  -5  12    5.51    3.41
   4   5 -12    7.91    2.98
  -4  -5  11    5.85    2.21
   4   5 -11    9.34    3.05
   4   5 -11    7.88    3.78
   4   5 -10  932.95   45.37
   4   5 -10  942.07   40.12
  -4  -5  10  796.76   43.49
   4   5 -10 1014.75   67.17
   4   5 -10  904.53   41.50
   4   5  -9  583.59   36.47
   4   5  -9  645.23   34.95
  -4  -5   9  519.58   36.08
   4   5  -9  666.57   54.89
   4   5  -9  560.38   32.25
   4   5  -8  431.77   31.69
   4   5  -8  452.04   31.62
  -4  -5   8  421.40   33.80
   4   5  -8  512.23   49.05
   4   5  -8  411.96   28.02
  -4  -5   7  288.93   23.81
   4   5  -7  312.49   27.32
   4   5  -7  312.20   26.28
  -4  -5   7  278.98   29.19
   4   5  -7  270.26   23.02
   4   5  -6  414.98   31.22
  -4  -5   6  377.77   28.63
  -4  -5   6  391.92   38.49
   4   5  -6  332.22   26.39
   4   5  -6  447.35   31.47
  -4  -5   5    1.91    3.73
  -4  -5   5    1.58    4.56
   4   5  -5   11.58    4.98
   4   5  -5    2.27    4.67
   4   5  -5    6.99    4.09
   4   5  -5    1.16    4.35
  -4  -5   4    2.78    7.03
   4   5  -4   11.15    4.06
   4   5  -3  669.96   40.61
  -4  -5   3  611.93   56.91
  -4  -5   3  602.38   38.11
   4   5  -2 5214.87  165.65
  -4  -5   2 5059.10  165.74
  -4  -5   2 4810.76  203.88
  -4  -5   1  452.59   50.14
  -4  -5   1  418.62   32.36
  -4  -5   0  358.41   46.39
  -4  -5   0  322.93   29.41
  -4  -5  -1  200.01   34.49
  -4  -5  -1  192.79   22.91
  -4  -5  -1  204.61   14.50
  -4  -5  -1  193.10   20.78
  -4  -5  -1  207.55   26.07
  -4  -5  -2  535.12   57.04
  -4  -5  -2  627.94   40.44
  -4  -5  -2  608.31   45.44
  -4  -5  -3  690.57   43.70
  -4  -5  -3  684.31   44.28
  -4  -5  -3  743.26   51.62
  -4  -5  -4  695.78   61.37
  -4  -5  -4  689.00   41.70
  -4  -5  -4  674.77   32.78
  -4  -5  -5 2431.21  120.77
  -4  -5  -5 2506.19   90.40
  -4  -5  -5 2274.04   78.26
  -4  -5  -5 2336.57   80.54
  -4  -5  -6 1117.65   47.38
  -4  -5  -6 1223.26   54.22
  -4  -5  -6 1265.05   78.41
  -4  -5  -7   92.84   11.55
  -4  -5  -7  111.64   13.64
  -4  -5  -7  112.29   22.02
  -4  -5  -8   47.04   11.18
  -4  -5  -8   37.24   13.03
  -4  -5  -8   36.21    6.53
   4   5   8   63.02   15.28
  -4  -5  -8   61.94   12.33
  -4  -5  -8   59.09    9.78
  -4  -5  -8   38.61    7.94
  -4  -5  -8   70.42   13.59
  -4  -5  -8   43.38    8.77
  -4  -5  -9  140.76   16.78
  -4  -5  -9  166.33   21.36
  -4  -5  -9  151.75   14.31
  -4  -5  -9  140.54   19.21
  -4  -5  -9  177.14   17.60
  -4  -5  -9  131.60   17.55
  -4  -5  -9  156.83   17.21
  -4  -5  -9  146.73   14.85
  -4  -5  -9  143.50   13.42
  -4  -5 -10   10.67    5.57
  -4  -5 -10    9.32    6.47
  -4  -5 -10   10.39    3.73
  -4  -5 -10   11.16    5.35
  -4  -5 -10   13.80    4.63
  -4  -5 -10    7.46    6.72
  -4  -5 -10   17.79    5.76
  -4  -5 -10   16.19    6.51
  -4  -5 -10    4.76    2.28
  -4  -5 -11  594.31   36.55
  -4  -5 -11  563.13   37.52
  -4  -5 -11  648.01   42.36
  -4  -5 -11  554.08   31.74
  -4  -5 -11  524.09   32.79
  -4  -5 -11  563.34   41.34
  -4  -5 -11  619.34   37.48
  -4  -5 -12  163.24   18.52
  -4  -5 -12  168.74   17.85
  -4  -5 -12  172.15   19.85
  -4  -5 -12  157.83   14.82
  -4  -5 -12  152.79   15.85
  -4  -5 -12  147.93   15.81
  -4  -5 -12  175.54   19.08
  -4  -5 -12  189.82   22.15
  -4  -5 -13  500.74   30.13
  -4  -5 -13  484.66   31.05
  -4  -5 -13  498.16   32.36
  -4  -5 -13  459.78   28.68
  -4  -5 -13  416.82   26.89
  -4  -5 -13  497.26   35.53
  -4  -5 -13  423.61   25.87
  -4  -5 -14   11.79    4.23
  -4  -5 -14   10.61    3.60
  -4  -5 -14   18.07    6.09
  -4  -5 -14    8.19    3.83
  -4  -5 -15  133.77   14.82
  -4  -5 -15  131.23   12.69
  -4  -5 -15  129.95   12.01
  -4  -5 -16   20.25    4.15
  -4  -5 -16   22.02    5.04
  -4  -5 -16   24.04    5.15
  -4  -5 -17   81.91    7.81
  -4  -5 -17   77.61    7.15
  -4  -5 -17   92.37    7.68
  -4  -6  13   31.85    4.88
   4   6 -13   26.59    4.16
   4   6 -12   22.14    4.39
  -4  -6  12   21.17    5.08
  -4  -6  11   10.99    3.51
   4   6 -11    7.77    3.73
   4   6 -10  467.34   29.25
  -4  -6  10  418.50   29.03
   4   6 -10  497.28   45.55
   4   6 -10  473.80   25.95
   4   6  -9   73.58   11.99
  -4  -6   9   57.16   10.37
   4   6  -9   74.83   17.82
   4   6  -9   67.45    9.97
   4   6  -8  198.74   21.02
   4   6  -8  237.28   20.95
  -4  -6   8  202.23   19.02
  -4  -6   8  195.66   22.83
   4   6  -8  204.97   31.23
   4   6  -8  199.43   17.19
   4   6  -7  351.30   28.72
  -4  -6   7  296.49   24.48
   4   6  -7  256.09   23.29
  -4  -6   7  299.61   30.74
   4   6  -7  274.97   21.40
  -4  -6   6   38.50   12.38
  -4  -6   6   60.23   13.00
   4   6  -6   57.55   10.48
   4   6  -6   34.93    8.23
   4   6  -5  158.07   18.45
  -4  -6   5  175.16   23.59
  -4  -6   5  168.26   22.64
   4   6  -5  162.02   17.33
   4   6  -4  135.10   16.61
  -4  -6   4  116.69   19.67
  -4  -6   4  127.18   18.91
   4   6  -4  121.22   14.94
  -4  -6   4  108.60   16.38
  -4  -6   4  128.52   29.18
  -4  -6   3   46.89   11.16
   4   6  -3   38.22    9.14
   4   6  -3   51.24   10.45
  -4  -6   3   59.70   20.26
  -4  -6   2 1759.64   85.08
  -4  -6   2 1652.26  118.72
  -4  -6   2 1791.57   94.73
  -4  -6   1    0.87    6.21
  -4  -6   1   -1.04    7.52
  -4  -6   0  219.48   43.76
  -4  -6   0  262.48   29.28
  -4  -6   0  225.13   19.48
  -4  -6   0  248.34   29.64
  -4  -6  -1   37.78   21.63
  -4  -6  -1   41.18   10.95
  -4  -6  -1   37.82    7.02
  -4  -6  -1   26.30    7.65
  -4  -6  -2   35.39   23.27
  -4  -6  -2   35.32   13.68
  -4  -6  -3  470.64   39.51
  -4  -6  -3  447.61   26.08
  -4  -6  -4  105.34   25.73
  -4  -6  -4   91.58   17.30
  -4  -6  -4   87.04   15.13
  -4  -6  -4   84.74   10.65
  -4  -6  -5  135.37   30.02
  -4  -6  -5  174.64   21.96
  -4  -6  -5  167.62   25.46
  -4  -6  -5  145.41   15.35
  -4  -6  -6  747.14   68.85
  -4  -6  -6  734.09   44.69
  -4  -6  -6  819.83   62.01
  -4  -6  -6  754.09   40.45
  -4  -6  -7   16.91    6.30
  -4  -6  -7   17.44    7.34
  -4  -6  -7   13.26   11.21
  -4  -6  -7   24.24    7.72
  -4  -6  -7   34.34   10.33
  -4  -6  -7   15.09    5.20
  -4  -6  -8  134.42   28.87
  -4  -6  -8  123.31   15.83
  -4  -6  -8  142.60   15.32
  -4  -6  -8  172.55   20.54
  -4  -6  -8  117.98   16.85
  -4  -6  -8  119.53   15.53
  -4  -6  -8   92.67   12.55
  -4  -6  -8  130.65   14.66
  -4  -6  -9   22.09    6.76
  -4  -6  -9   14.27    4.70
  -4  -6  -9   19.71    4.36
  -4  -6  -9   16.17    8.49
  -4  -6  -9   21.93    7.16
  -4  -6  -9   26.14    7.40
  -4  -6 -10    8.32    3.44
  -4  -6 -10   13.60    5.52
  -4  -6 -10    9.43    3.96
  -4  -6 -10    9.55    3.25
  -4  -6 -10   10.42    3.34
  -4  -6 -10   21.00    5.77
  -4  -6 -10   12.54    4.20
  -4  -6 -10   17.39    5.14
  -4  -6 -11  157.66   17.13
  -4  -6 -11  156.95   18.51
  -4  -6 -11  157.98   20.19
  -4  -6 -11  155.34   14.52
  -4  -6 -11  134.47   19.45
  -4  -6 -11  181.98   20.42
  -4  -6 -12    3.21    5.01
  -4  -6 -12    2.34    3.49
  -4  -6 -12    2.31    2.59
  -4  -6 -12   -0.80    4.02
  -4  -6 -12   -0.73    2.25
  -4  -6 -12    1.88    3.24
  -4  -6 -13  125.64   14.80
  -4  -6 -13  143.57   14.03
  -4  -6 -13  134.44   14.63
  -4  -6 -13  119.57   13.97
  -4  -6 -13  128.41   17.81
  -4  -6 -13  121.11   13.80
  -4  -6 -13  132.30   13.04
  -4  -6 -14   11.62    4.47
  -4  -6 -14    5.38    2.48
  -4  -6 -14    9.40    3.21
  -4  -6 -14    6.97    3.66
  -4  -6 -14    9.51    4.21
  -4  -6 -14   12.67    4.25
  -4  -6 -15   46.35    8.51
  -4  -6 -15   43.36    6.41
  -4  -6 -16   14.29    3.66
  -4  -6 -16   19.33    3.77
  -4  -6 -17   -0.88    1.30
  -4  -6 -17   11.85    2.79
  -4  -7  13  249.43   14.13
   4   7 -13  239.70   13.25
   4   7 -12   -0.57    1.24
  -4  -7  12  228.23   14.67
  -4  -7  11    6.49    3.66
   4   7 -11    9.55    3.97
   4   7 -10  109.39   12.57
  -4  -7  10  103.04   12.90
  -4  -7   9   49.72   10.98
   4   7  -9   49.22    9.84
  -4  -7   9   59.31    9.50
   4   7  -9   47.72    7.94
   4   7  -8   11.10    3.39
  -4  -7   8    7.03    4.91
  -4  -7   8    5.60    2.53
   4   7  -8    6.50    4.06
  -4  -7   7  511.79   33.84
   4   7  -7  512.22   35.55
  -4  -7   7  486.93   40.36
   4   7  -7  533.11   29.65
  -4  -7   6  111.64   16.90
  -4  -7   6   93.26   16.57
   4   7  -6  125.84   17.39
   4   7  -6  125.77   13.26
   4   7  -5 1048.31   53.75
  -4  -7   5 1006.77   62.55
   4   7  -5 1057.51   46.08
   4   7  -4  161.15   18.49
  -4  -7   4  162.69   24.41
  -4  -7   4  111.03   28.06
  -4  -7   3   12.71    7.01
  -4  -7   3    2.86    7.46
  -4  -7   2   -1.16   12.46
  -4  -7   2   -2.98    7.85
  -4  -7   1   48.01   12.68
  -4  -7   1   89.92   30.58
  -4  -7   1   47.93   10.49
  -4  -7   1   44.20   14.44
  -4  -7   0  651.62   83.54
  -4  -7   0  638.55   53.47
  -4  -7   0  580.64   37.67
  -4  -7  -1 1138.27   74.73
  -4  -7  -1 1142.02  116.23
  -4  -7  -2  433.57   67.00
  -4  -7  -2  410.39   25.59
  -4  -7  -3  931.23   58.76
  -4  -7  -3  899.49   42.27
  -4  -7  -4   82.37   20.81
  -4  -7  -4  107.83   21.70
  -4  -7  -4  115.18   36.35
  -4  -7  -4   92.17   11.93
  -4  -7  -5  151.02   34.67
  -4  -7  -5  143.05   24.78
  -4  -7  -5  165.54   30.32
  -4  -7  -5  135.58   15.78
  -4  -7  -6  204.07   24.38
  -4  -7  -6  186.48   41.19
  -4  -7  -6  262.88   36.71
  -4  -7  -6  214.13   21.68
  -4  -7  -6  296.72   33.10
  -4  -7  -6  213.55   19.34
  -4  -7  -6  192.01   15.60
  -4  -7  -7   14.54    6.44
  -4  -7  -7    1.24    6.63
  -4  -7  -7    4.22    6.32
  -4  -7  -7   15.96    4.38
  -4  -7  -7    3.78    2.32
  -4  -7  -7    2.21    4.04
  -4  -7  -7    8.90    5.87
  -4  -7  -7    0.89    4.22
  -4  -7  -8  574.66   34.41
  -4  -7  -8  586.95   42.15
  -4  -7  -8  588.98   32.19
  -4  -7  -8  619.67   37.55
  -4  -7  -8  538.67   39.79
  -4  -7  -8  652.52   39.09
  -4  -7  -8  598.12   34.25
  -4  -7  -8  489.30   32.99
  -4  -7  -9  137.85   19.23
  -4  -7  -9  140.18   16.12
  -4  -7  -9  133.75   19.44
  -4  -7  -9  138.79   19.90
  -4  -7  -9  129.43   15.57
  -4  -7  -9  167.24   19.47
  -4  -7  -9  180.12   20.62
  -4  -7 -10   46.21    9.01
  -4  -7 -10   26.47    8.45
  -4  -7 -10   48.54   10.68
  -4  -7 -10   53.44   10.64
  -4  -7 -10   37.83    8.43
  -4  -7 -11   58.31   10.55
  -4  -7 -11   63.30    9.86
  -4  -7 -11   60.22   13.57
  -4  -7 -11   50.57    7.81
  -4  -7 -11   58.10   11.23
  -4  -7 -12  158.53   14.61
  -4  -7 -12  159.32   17.96
  -4  -7 -12  128.32   18.97
  -4  -7 -12  139.42   14.76
  -4  -7 -12  147.58   13.76
  -4  -7 -13   15.63    5.89
  -4  -7 -13    7.70    2.06
  -4  -7 -13    9.61    3.26
  -4  -7 -13    8.95    4.03
  -4  -7 -13   15.40    5.69
  -4  -7 -13   13.00    4.60
  -4  -7 -13    6.43    3.89
  -4  -7 -14   15.45    4.19
  -4  -7 -14    9.77    4.14
  -4  -7 -14   13.17    4.37
  -4  -7 -14   13.08    3.67
  -4  -7 -14   10.19    4.40
  -4  -7 -14   11.24    4.47
  -4  -7 -15   10.62    3.06
  -4  -7 -15   13.91    5.08
  -4  -7 -15   11.80    3.46
  -4  -7 -16  228.16   14.31
  -4  -7 -16  247.98   13.14
  -4  -8  12  294.41   17.10
  -4  -8  11    6.52    3.44
   4   8 -11    4.61    2.27
  -4  -8  10   15.24    5.15
  -4  -8  10   15.74    4.71
   4   8 -10   11.47    3.85
   4   8  -9  219.01   19.09
  -4  -8   9  220.40   18.31
  -4  -8   9  199.06   21.04
  -4  -8   8   51.47   11.46
   4   8  -8   52.13   10.30
  -4  -8   8   42.32    8.29
  -4  -8   7  443.69   31.69
   4   8  -7  510.04   34.46
  -4  -8   7  450.50   37.65
   4   8  -6  200.50   21.88
  -4  -8   6  200.75   24.00
   4   8  -5 1516.07   66.85
  -4  -8   5 1369.06   75.15
  -4  -8   5 1297.41   69.35
  -4  -8   4   36.83   10.04
  -4  -8   3  142.61   25.81
  -4  -8   3  127.49   16.97
  -4  -8   3  147.63   24.48
  -4  -8   3  128.80   23.19
  -4  -8   2   36.02   13.71
  -4  -8   2   28.29    7.64
  -4  -8   2   11.75    8.27
  -4  -8   2   26.52    9.12
  -4  -8   2   38.82   26.24
  -4  -8   1  184.26   24.28
  -4  -8   1  149.27   15.36
  -4  -8   1  225.22   58.79
  -4  -8   1  135.71   19.83
  -4  -8   1  162.05   29.22
  -4  -8   1  140.72   24.47
  -4  -8   0  290.02   42.81
  -4  -8   0  357.59   76.66
  -4  -8   0  237.35   25.75
  -4  -8   0  260.46   32.31
  -4  -8   0  280.64   43.48
  -4  -8   0  269.83   21.13
  -4  -8  -1 1294.95   91.10
  -4  -8  -1 1047.43  129.78
  -4  -8  -1 1216.60   74.24
  -4  -8  -1 1146.48   50.54
  -4  -8  -1 1232.84  104.17
  -4  -8  -2  284.18   40.36
  -4  -8  -2  284.24   65.24
  -4  -8  -2  332.58   52.57
  -4  -8  -2  284.89   33.50
  -4  -8  -2  289.26   22.15
  -4  -8  -3  422.22   39.84
  -4  -8  -3  482.09   44.75
  -4  -8  -3  479.24   29.81
  -4  -8  -3  536.00   58.82
  -4  -8  -4  242.89   34.40
  -4  -8  -4  165.96   30.67
  -4  -8  -4  236.10   58.65
  -4  -8  -4  194.35   30.62
  -4  -8  -4  217.32   19.93
  -4  -8  -5  207.54   48.78
  -4  -8  -5  227.46   35.89
  -4  -8  -5  154.01   24.14
  -4  -8  -5  204.23   20.83
  -4  -8  -5  200.87   15.97
  -4  -8  -5  185.18   19.63
  -4  -8  -5  171.78   19.38
  -4  -8  -5  268.91   30.22
  -4  -8  -6   -7.48   12.50
  -4  -8  -6  -11.96   10.07
  -4  -8  -6    0.69    4.14
  -4  -8  -6   -3.45    5.96
  -4  -8  -6    2.29    2.91
  -4  -8  -6    1.02    3.03
  -4  -8  -6    0.67    4.87
  -4  -8  -6    1.74    4.24
  -4  -8  -6    2.15    5.36
  -4  -8  -7   -2.65    5.14
  -4  -8  -7    1.66    3.65
  -4  -8  -7    3.13    3.56
  -4  -8  -7    0.56    2.00
  -4  -8  -7    2.30    5.39
  -4  -8  -7   -1.20    3.70
  -4  -8  -7   -3.70    4.37
  -4  -8  -8  544.01   41.68
  -4  -8  -8  617.94   38.61
  -4  -8  -8  534.98   40.76
  -4  -8  -8  726.00   46.79
  -4  -8  -8  662.30   40.13
  -4  -8  -9  402.72   34.91
  -4  -8  -9  480.87   34.73
  -4  -8  -9  392.57   35.33
  -4  -8  -9  516.19   36.42
  -4  -8  -9  520.55   30.67
  -4  -8  -9  378.15   29.21
  -4  -8 -10   43.68    9.39
  -4  -8 -10   29.04    6.64
  -4  -8 -10   35.25    8.40
  -4  -8 -10   36.18    9.42
  -4  -8 -10   22.20    8.38
  -4  -8 -11    5.55    3.83
  -4  -8 -11   -0.89    3.86
  -4  -8 -11   -3.19    3.18
  -4  -8 -11    5.94    3.98
  -4  -8 -11    0.55    4.09
  -4  -8 -12  445.12   28.64
  -4  -8 -12  383.02   33.56
  -4  -8 -12  360.03   23.97
  -4  -8 -13   18.20    5.18
  -4  -8 -13    9.46    3.52
  -4  -8 -13   10.88    5.06
  -4  -8 -14    4.02    2.70
  -4  -8 -14    4.01    3.19
  -4  -8 -14    3.63    1.94
  -4  -8 -14    2.01    1.87
  -4  -8 -14    3.36    1.29
  -4  -8 -15   40.98    7.07
  -4  -8 -15   43.41    5.66
  -4  -8 -16  320.81   17.09
  -4  -9  11    9.30    2.79
   4   9 -11    9.87    2.85
   4   9 -10  130.15   11.81
  -4  -9  10  157.47   13.10
  -4  -9  10  130.93   13.52
   4   9  -9    8.46    3.83
  -4  -9   9   -1.14    2.24
  -4  -9   9    9.07    3.17
   4   9  -8   31.53    8.19
  -4  -9   8   26.89    6.45
  -4  -9   7  294.39   24.97
   4   9  -7  353.69   27.57
  -4  -9   7  309.95   46.94
   4   9  -6   52.24   10.38
  -4  -9   6   45.77   12.45
  -4  -9   6   44.82   11.81
  -4  -9   6   45.74   16.20
   4   9  -5  616.54   39.58
  -4  -9   5  551.65   41.36
  -4  -9   5  616.85   60.60
  -4  -9   4  119.39   21.68
  -4  -9   4  135.19   17.86
  -4  -9   4  126.68   25.10
  -4  -9   3   53.94   11.09
  -4  -9   3   62.06   17.44
  -4  -9   3   51.39   15.53
  -4  -9   3   73.85   20.38
  -4  -9   3   59.07   15.45
  -4  -9   2  270.91   30.56
  -4  -9   2  299.08   24.37
  -4  -9   2  332.08   39.42
  -4  -9   2  310.16   35.49
  -4  -9   2  326.63   41.55
  -4  -9   1    7.75    2.73
  -4  -9   1    5.96    3.92
  -4  -9   1    1.62    8.86
  -4  -9   1    5.06    3.35
  -4  -9   1    2.77    3.58
  -4  -9   0  336.23   27.52
  -4  -9   0  289.10   26.21
  -4  -9   0  259.43   19.82
  -4  -9   0  314.08   24.08
  -4  -9   0  293.59   36.97
  -4  -9   0  254.53   41.77
  -4  -9   0  254.08   63.18
  -4  -9  -1  300.75   20.36
  -4  -9  -1  324.24   24.86
  -4  -9  -1  352.34   40.99
  -4  -9  -1  300.33   24.18
  -4  -9  -1  302.72   51.89
  -4  -9  -1  323.26   72.51
  -4  -9  -2   23.60    6.94
  -4  -9  -2   49.14   39.15
  -4  -9  -2   32.49    8.97
  -4  -9  -2   21.64    7.00
  -4  -9  -2   26.15   11.77
  -4  -9  -3  464.90   27.05
  -4  -9  -3  420.60   39.30
  -4  -9  -3  511.46   33.02
  -4  -9  -3  520.58   63.01
  -4  -9  -3  532.41   36.86
  -4  -9  -4   34.81    6.14
  -4  -9  -4   35.87   13.05
  -4  -9  -4   44.58   16.21
  -4  -9  -4   50.58   10.38
  -4  -9  -4   20.34    7.47
  -4  -9  -5   40.18   13.40
  -4  -9  -5   59.90   18.06
  -4  -9  -5   78.17   13.16
  -4  -9  -5   76.25    9.72
  -4  -9  -5   67.23   12.57
  -4  -9  -5   79.30   14.73
  -4  -9  -6  191.72   32.23
  -4  -9  -6  186.96   23.23
  -4  -9  -6  130.91   22.01
  -4  -9  -6  139.21   19.62
  -4  -9  -6  153.71   18.23
  -4  -9  -6  196.74   24.60
  -4  -9  -6  182.89   18.51
  -4  -9  -6  176.40   15.98
  -4  -9  -7   -1.39    5.87
  -4  -9  -7   -0.82    5.78
  -4  -9  -7    7.64    6.23
  -4  -9  -7    1.87    2.41
  -4  -9  -7    3.47    4.63
  -4  -9  -7    5.01    4.19
  -4  -9  -7    5.31    6.19
  -4  -9  -7   -1.26    4.32
  -4  -9  -8  315.06   31.11
  -4  -9  -8  302.56   30.29
  -4  -9  -8  378.33   29.42
  -4  -9  -8  363.87   29.01
  -4  -9  -9  144.46   21.83
  -4  -9  -9  157.78   15.99
  -4  -9  -9  136.75   17.49
  -4  -9  -9  188.95   20.83
  -4  -9 -10   47.71    9.64
  -4  -9 -10   39.19   10.99
  -4  -9 -10   42.05    9.43
  -4  -9 -10   58.40    9.40
  -4  -9 -10   57.07   10.82
  -4  -9 -10   42.45    9.64
  -4  -9 -11  100.83   12.79
  -4  -9 -11  113.59   14.49
  -4  -9 -11   88.44   16.70
  -4  -9 -11  117.25   14.54
  -4  -9 -11  107.07   12.35
  -4  -9 -12   59.27    9.00
  -4  -9 -12   59.18    9.69
  -4  -9 -12   53.10    9.80
  -4  -9 -12   61.63   12.57
  -4  -9 -12   53.71    7.72
  -4  -9 -13   28.44    5.06
  -4  -9 -13   34.94    9.00
  -4  -9 -13   21.10    5.32
  -4  -9 -13   21.95    5.08
  -4  -9 -14   22.64    4.75
  -4  -9 -14   26.62    7.01
  -4  -9 -15   11.34    3.38
  -4 -10  11    1.78    1.96
   4  10 -11   -0.17    1.30
  -4 -10  10  408.70   18.52
   4  10 -10  337.83   16.07
  -4 -10   9   99.82   10.98
   4  10  -9  101.77   10.67
   4  10  -8  185.31   16.66
  -4 -10   8  187.75   20.05
  -4 -10   8  165.93   16.22
  -4 -10   7   46.33   11.24
   4  10  -7   43.90    8.78
  -4 -10   7   35.63    7.19
  -4 -10   6  184.86   20.74
   4  10  -6  226.77   22.14
  -4 -10   6  179.14   21.72
  -4 -10   6  215.08   36.70
  -4 -10   6  201.30   38.88
  -4 -10   5    3.08    4.65
  -4 -10   5   -7.63    9.94
   4  10  -5   -1.93    4.86
  -4 -10   5   -1.71    8.36
  -4 -10   5   10.59   10.66
  -4 -10   4   64.27   13.13
  -4 -10   4   45.22   14.29
  -4 -10   4   68.40   19.36
  -4 -10   4   64.53   19.84
  -4 -10   3  192.59   25.95
  -4 -10   3  206.82   21.79
  -4 -10   3  235.58   33.09
  -4 -10   3  251.17   39.28
  -4 -10   3  191.77   28.70
  -4 -10   2  908.25   58.99
  -4 -10   2 1090.20   51.11
  -4 -10   2 1110.46   74.96
  -4 -10   2 1179.14   85.41
  -4 -10   2  988.02   73.99
  -4 -10   1   35.24    7.01
  -4 -10   1   38.86    9.76
  -4 -10   1   35.33    8.00
  -4 -10   1   49.69   18.76
  -4 -10   1   37.81   14.39
  -4 -10   0   55.15    8.39
  -4 -10   0   62.48   12.05
  -4 -10   0   56.96   22.29
  -4 -10   0   53.29   16.39
  -4 -10  -1    3.84    3.91
  -4 -10  -1    2.39   13.98
  -4 -10  -1    3.00    8.45
  -4 -10  -2  147.06   15.12
  -4 -10  -2  172.43   34.41
  -4 -10  -2  169.06   19.66
  -4 -10  -2  137.30   27.14
  -4 -10  -3  105.48   12.94
  -4 -10  -3  123.03   17.56
  -4 -10  -3  139.86   19.74
  -4 -10  -4  157.89   30.96
  -4 -10  -4  177.56   21.80
  -4 -10  -4  169.21   14.93
  -4 -10  -4  160.29   20.49
  -4 -10  -5  195.12   30.28
  -4 -10  -5  184.13   30.37
  -4 -10  -5  221.17   25.24
  -4 -10  -5  201.32   22.85
  -4 -10  -5  191.94   24.00
  -4 -10  -5  255.23   22.18
  -4 -10  -5  218.27   17.66
  -4 -10  -6  401.62   44.25
  -4 -10  -6  379.26   34.07
  -4 -10  -6  392.20   39.77
  -4 -10  -6  444.45   33.33
  -4 -10  -6  475.87   31.71
  -4 -10  -6  410.07   34.89
  -4 -10  -6  504.42   29.21
  -4 -10  -7   35.49   10.19
  -4 -10  -7   29.76    8.88
  -4 -10  -7   25.48    7.52
  -4 -10  -7   37.33    8.79
  -4 -10  -7   38.18   10.18
  -4 -10  -8   11.22    5.15
  -4 -10  -8    3.56    3.49
  -4 -10  -8   10.17    4.26
  -4 -10  -9   66.65   14.37
  -4 -10  -9  100.04   15.01
  -4 -10  -9   77.60   12.54
  -4 -10  -9   62.70   11.79
  -4 -10 -10   11.06    4.76
  -4 -10 -10    9.18    4.68
  -4 -10 -10    5.30    3.16
  -4 -10 -10    8.86    3.55
  -4 -10 -11  190.67   16.03
  -4 -10 -11  182.00   17.64
  -4 -10 -11  151.64   20.60
  -4 -10 -11  203.87   18.81
  -4 -10 -12   27.77    4.99
  -4 -10 -12   28.81    6.29
  -4 -10 -12   14.92    6.12
  -4 -10 -12   25.63    5.66
  -4 -10 -13  202.42   15.47
  -4 -10 -13  195.42   15.11
  -4 -11  10  410.89   19.01
  -4 -11  10  408.49   21.01
   4  11  -9  250.90   13.84
  -4 -11   9  239.84   14.74
  -4 -11   9  285.49   18.32
   4  11  -8  245.37   16.45
   4  11  -8  251.84   17.57
  -4 -11   8  257.10   20.78
  -4 -11   8  249.82   18.52
  -4 -11   7   70.62   12.33
   4  11  -7   79.25   10.94
  -4 -11   7   69.34   10.87
   4  11  -6  216.28   20.43
  -4 -11   6  179.33   20.26
  -4 -11   6  200.40   21.09
  -4 -11   6  212.73   20.76
  -4 -11   5    0.68    2.68
   4  11  -5    0.59    3.53
  -4 -11   5    2.21    3.66
  -4 -11   5    8.53   10.63
  -4 -11   4   37.77   10.25
   4  11  -4   56.24   11.43
  -4 -11   4   46.77   20.61
   4  11  -4   26.58   15.63
  -4 -11   3  402.84   29.27
  -4 -11   3  411.74   52.61
   4  11  -3  354.00   54.57
  -4 -11   3  354.48   39.22
  -4 -11   2 1608.95   79.64
  -4 -11   2 1890.14   71.75
  -4 -11   2 2023.10  121.15
  -4 -11   2 1750.63  101.54
  -4 -11   1  138.79   14.16
  -4 -11   1  111.71   16.52
  -4 -11   1  109.59   24.37
  -4 -11   1  120.67   26.88
  -4 -11   0   84.39   13.20
  -4 -11   0   67.62   24.99
  -4 -11   0   87.09   22.88
  -4 -11  -1   42.11    8.01
  -4 -11  -1   19.15    9.12
  -4 -11  -1   49.94   16.09
  -4 -11  -2  159.04   15.94
  -4 -11  -2  134.19   32.37
  -4 -11  -2  145.17   20.11
  -4 -11  -3   80.36   10.51
  -4 -11  -3   89.35   16.76
  -4 -11  -3   82.46   10.26
  -4 -11  -3   88.61   16.34
  -4 -11  -4  284.02   40.36
  -4 -11  -4  231.36   27.02
  -4 -11  -4  265.83   18.92
  -4 -11  -5  700.83   47.74
  -4 -11  -5  887.89   68.91
  -4 -11  -5  698.22   43.44
  -4 -11  -5  742.17   47.74
  -4 -11  -5  856.94   44.13
  -4 -11  -5  791.97   37.39
  -4 -11  -6  544.81   41.80
  -4 -11  -6  665.50   54.42
  -4 -11  -6  653.52   41.92
  -4 -11  -6  545.54   38.73
  -4 -11  -6  751.50   40.46
  -4 -11  -6  648.54   33.38
   4  11   7   13.23   22.79
  -4 -11  -7    5.04    3.79
  -4 -11  -7   -4.34    2.77
  -4 -11  -7    4.88    3.92
  -4 -11  -8    3.22    4.00
  -4 -11  -8    5.94    5.01
  -4 -11  -8    8.38    5.17
  -4 -11  -9  100.03   11.51
  -4 -11  -9  127.57   16.53
  -4 -11  -9   95.91   13.91
  -4 -11 -10    8.07    2.64
  -4 -11 -10   18.19    6.36
  -4 -11 -11  296.07   21.26
  -4 -11 -11  317.19   22.59
  -4 -11 -12  175.67   14.75
  -4 -11 -12  177.36   14.78
  -4 -11 -12  171.05   14.11
  -4 -11 -13  251.13   15.32
  -4 -11 -13  276.72   16.60
  -4 -11 -13  281.29   16.18
  -4 -12   9   20.77    4.11
  -4 -12   9   16.44    3.32
   4  12  -8   33.98    4.67
  -4 -12   8   33.30    6.24
  -4 -12   8   34.01    5.52
   4  12  -7  120.14   11.69
  -4 -12   7  118.13   12.48
  -4 -12   7  130.95   13.61
  -4 -12   6   23.81    6.22
  -4 -12   6   17.80    6.08
   4  12  -6   17.67    4.35
  -4 -12   6   13.96    6.08
   4  12  -5  122.58   14.23
  -4 -12   5  108.28   14.18
  -4 -12   5   86.76   13.14
  -4 -12   5  109.21   15.36
  -4 -12   4    9.22    2.74
   4  12  -4    5.40    3.46
  -4 -12   3   29.74    6.37
  -4 -12   3   25.75    9.83
  -4 -12   2  504.61   28.38
  -4 -12   2  410.75   33.87
   4  12  -2  474.58   64.10
  -4 -12   2  455.57   53.34
  -4 -12   2  429.37   45.30
  -4 -12   1    8.11    3.96
   4  12  -1   -2.91    8.18
  -4 -12   1   15.40    5.83
  -4 -12   1   19.20    8.93
  -4 -12   0  112.87   14.94
  -4 -12   0   94.95   28.77
  -4 -12  -1   35.41    8.06
  -4 -12  -1   42.56   19.33
  -4 -12  -2   23.81    6.42
  -4 -12  -2   21.68   15.67
  -4 -12  -3  123.16   12.48
  -4 -12  -4   11.82   12.79
  -4 -12  -4   14.62    4.36
  -4 -12  -4    2.55    2.99
  -4 -12  -5  248.13   36.16
  -4 -12  -5  185.13   22.07
  -4 -12  -5  218.01   20.39
  -4 -12  -6  157.47   25.52
  -4 -12  -6  116.37   15.04
  -4 -12  -6  138.01   17.59
  -4 -12  -6  164.04   17.29
  -4 -12  -7   -1.03    2.52
  -4 -12  -7    3.89    5.59
  -4 -12  -7   -2.28    2.98
  -4 -12  -8   15.03    4.55
  -4 -12  -8   24.45    6.92
  -4 -12  -8   30.61    7.58
  -4 -12  -8   23.87    6.56
  -4 -12  -9    6.64    3.82
  -4 -12  -9    2.90    2.38
  -4 -12 -10    3.63    2.32
  -4 -12 -10   -1.54    1.65
  -4 -12 -11  109.55   11.10
  -4 -12 -11  133.69   12.41
  -4 -12 -12    6.58    2.73
  -4 -12 -12    4.30    2.37
  -4 -12 -12    2.80    2.38
  -4 -13   7   16.67    4.35
   4  13  -7   -0.65    0.77
   4  13  -6   76.63    8.35
  -4 -13   6   69.65    9.21
   4  13  -5  516.64   24.53
  -4 -13   5  543.97   30.16
   4  13  -4   30.10    7.01
  -4 -13   4   16.09    6.43
  -4 -13   4   29.13    9.22
  -4 -13   3   12.11    6.05
   4  13  -3   16.75    5.20
  -4 -13   2    8.55    6.31
  -4 -13   1   11.95    6.54
  -4 -13   1   18.75   12.20
  -4 -13   0  187.59   18.11
  -4 -13   0  164.96   29.05
  -4 -13  -1  488.76   28.68
  -4 -13  -1  436.37   51.73
  -4 -13  -2  135.64   13.05
  -4 -13  -2  159.87   30.20
  -4 -13  -3  301.23   31.40
  -4 -13  -4    9.44    3.40
  -4 -13  -4    7.74    4.35
  -4 -13  -5    0.49    2.58
  -4 -13  -5   -0.66    4.52
  -4 -13  -6    0.94    3.22
  -4 -13  -6   11.16    4.11
  -4 -13  -7   -3.65    3.23
  -4 -13  -7   -3.28    2.35
  -4 -13  -7   -1.34    3.44
  -4 -13  -7   -2.68    3.66
  -4 -13  -8  282.39   20.48
  -4 -13  -8  281.61   21.82
  -4 -13  -9  115.59   11.95
  -4 -13  -9  106.86   11.77
  -4 -13 -10   50.12    7.04
  -4 -13 -10   52.27    7.09
   4  14  -5  402.17   19.33
  -4 -14   5  447.54   24.36
  -4 -14   5  477.81   25.24
  -4 -14   4   51.90    8.53
   4  14  -4   47.07    6.50
  -4 -14   4   54.46    9.30
  -4 -14   3   18.80    5.58
   4  14  -3   25.67    5.57
  -4 -14   3   18.39    6.43
  -4 -14   2    2.23    2.67
  -4 -14   2   -3.85    7.39
  -4 -14   1   78.31   10.29
  -4 -14   1   59.98   13.53
  -4 -14   0  140.57   13.70
  -4 -14   0  153.71   22.77
  -4 -14  -2  256.24   28.64
  -4 -14  -2  250.27   20.29
  -4 -14  -3  290.06   27.51
  -4 -14  -3  272.80   21.03
  -4 -14  -4   26.94    6.65
  -4 -14  -4   28.75    9.87
  -4 -14  -5   51.71    8.41
  -4 -14  -5   46.51    9.52
  -4 -14  -5   63.54   11.04
  -4 -14  -6    2.91    3.26
  -4 -14  -6    0.82    2.06
  -4 -14  -6    0.38    2.83
  -4 -14  -7    0.40    3.04
  -4 -14  -7   -4.92    3.00
  -4 -14  -8  423.91   23.55
  -4 -14  -9  193.44   13.21
  -4 -15   2   76.63    8.29
   4  15  -2   75.25    7.52
  -4 -15   2  100.24   13.37
  -4 -15   1   -0.22    2.57
   4  15  -1    6.58    2.01
  -4 -15   1    8.44    3.09
  -4 -15   0   68.36   13.05
  -4 -15   0   67.89    9.12
  -4 -15  -1   78.10   10.00
  -4 -15  -2   47.37    7.94
  -4 -15  -2   55.31   12.25
  -4 -15  -3  173.03   14.76
  -4 -15  -3  175.93   19.19
  -4 -15  -4    1.97    2.16
  -4 -15  -4    3.60    2.92
  -4 -15  -5   -0.34    2.94
  -4 -15  -5    3.25    1.42
  -4 -15  -5    2.14    2.79
   5 -11  -1   17.31    8.23
   5 -11  -1   17.19    5.26
   5 -11  -1   22.29    4.84
   5 -11   0   94.64   16.01
  -5  11   0  125.49   14.64
   5 -11   0  105.15   11.27
  -5  11  -1   42.02    8.92
   5 -11   1   24.79    8.73
   5 -11   2  105.91   14.40
  -5  11  -2  116.89   13.84
   5 -11   2  118.36   12.58
   5 -11   3  136.20   14.09
  -5  11  -4   25.39    5.74
   5 -11   4   25.01    6.30
   5 -11   5   49.02    9.14
   5 -10  -4   -0.70    1.52
  -5  10   3   22.97    6.67
   5 -10  -3   25.08    9.34
   5 -10  -3   16.00    6.09
   5 -10  -3   19.70    5.09
  -5  10   2   32.71    7.72
   5 -10  -2   41.49   15.02
   5 -10  -2   32.71   10.08
   5 -10  -2   27.93    6.43
   5 -10  -1  169.88   27.00
  -5  10   1  207.58   22.07
   5 -10  -1  237.67   28.81
   5 -10  -1  156.54   15.20
  -5  10   0  115.00   16.58
   5 -10   0  102.46   20.76
   5 -10   0  124.05   22.89
   5 -10   0   87.07   11.74
   5 -10   1  298.84   33.60
  -5  10  -1  281.30   28.35
   5 -10   2 1467.62  108.96
   5 -10   2  690.74   49.42
   5 -10   3  286.06   27.58
   5 -10   3  330.03   25.59
  -5  10  -4   44.76    8.67
   5 -10   4   39.29    8.69
   5 -10   5   15.38    5.36
  -5  10  -5   28.83    7.43
   5 -10   6   31.66    6.98
   5 -10   6   44.15   10.52
  -5  10  -6   29.73    6.27
   5 -10   7   31.93    7.37
   5 -10   7   19.23    6.01
  -5  10  -7   16.38    4.08
   5 -10   8  491.25   29.43
   5 -10   8  523.45   28.86
   5  -9  -6   68.25   10.67
   5  -9  -6   94.47   11.74
   5  -9  -5  432.39   33.06
   5  -9  -5  429.06   29.24
   5  -9  -4   -3.09    2.69
   5  -9  -4   24.24   12.49
  -5   9   3   18.78    6.81
   5  -9  -3   18.08    5.63
   5  -9  -3   12.62    7.75
   5  -9  -3   16.96    4.76
   5  -9  -2    1.21    6.30
  -5   9   2   29.56    9.32
   5  -9  -2   27.80   13.18
   5  -9  -2   22.29    6.54
   5  -9  -2   20.94   10.75
   5  -9  -1   46.17   18.36
   5  -9  -1   43.77   18.56
   5  -9  -1   77.76   22.60
   5  -9  -1   44.25    8.61
   5  -9   0  224.66   35.96
   5  -9   0  179.83   32.73
   5  -9   0  186.46   18.86
   5  -9   1  241.31   34.92
   5  -9   1  473.60   65.37
   5  -9   2 1001.95  121.42
   5  -9   2 1071.60  100.82
   5  -9   3  371.06   27.62
   5  -9   3  898.02  108.76
   5  -9   3  465.14   40.90
   5  -9   3  797.66   79.34
   5  -9   4   32.04   10.26
   5  -9   4   52.03   12.76
   5  -9   5   24.79   10.02
   5  -9   5   17.44   17.18
   5  -9   6   44.08   13.20
   5  -9   6   44.04   12.50
  -5   9  -6   34.22    7.66
   5  -9   7   17.33    7.80
   5  -9   7   29.59   12.14
  -5   9  -7   17.00    4.71
   5  -9   8  398.00   30.30
   5  -9   8  377.85   32.16
   5  -9   9  282.90   23.67
   5  -9   9  270.97   25.08
   5  -8  -8   -0.80    1.87
   5  -8  -8   49.94    6.77
   5  -8  -7   34.20    7.83
   5  -8  -6    1.38    4.24
   5  -8  -6   11.06    6.22
   5  -8  -5  113.68   14.70
   5  -8  -5  133.94   21.58
   5  -8  -5   91.81   15.59
   5  -8  -5  127.33   13.80
   5  -8  -4   49.72   12.41
  -5   8   4   72.43   12.74
   5  -8  -4   68.60   12.06
   5  -8  -4   43.20   12.41
   5  -8  -4   52.52    9.63
   5  -8  -3   28.51   12.09
  -5   8   3   31.25    9.87
   5  -8  -3   27.54   11.91
   5  -8  -3   25.23    7.17
   5  -8  -2  115.94   27.85
   5  -8  -2  151.57   27.79
   5  -8  -2  169.21   18.48
   5  -8  -1  129.07   46.72
   5  -8  -1  206.54   37.17
   5  -8  -1   96.68   70.05
  -5   8   1  135.39   39.71
   5  -8  -1  194.72   20.75
   5  -8   0  283.96   41.17
   5  -8   0  306.15  137.36
  -5   8   0  229.13   49.80
   5  -8   1   26.53   13.03
  -5   8  -1   64.20   28.31
   5  -8   2   38.18   26.02
   5  -8   2   23.59   86.01
  -5   8  -2   10.04   11.92
   5  -8   3   -5.83   35.60
   5  -8   3   71.32   49.69
   5  -8   3   26.22   11.85
   5  -8   4   42.48   39.95
   5  -8   4   11.79   40.16
  -5   8  -4   51.43   25.59
   5  -8   4   63.27   16.87
   5  -8   5  534.24  117.91
  -5   8  -5  513.03   64.29
   5  -8   6   39.12   17.69
  -5   8  -6   57.26    9.72
  -5   8  -7   13.52    5.24
  -5   8  -7   15.30    4.75
   5  -8   8   38.58   11.47
  -5   8  -8   58.30    9.89
  -5   8  -8   60.76    9.59
  -5   8  -9   23.25    6.20
  -5   8 -10   96.72   10.40
  -5   8 -11   68.30    7.70
   5  -8  11   72.94   11.81
   5  -8  11   83.51   11.52
  -5   8 -12   13.49    3.43
   5  -8  12   14.90    4.21
   5  -8  12   15.86    5.28
   5  -7  -9   63.92    7.05
   5  -7  -9   86.33    9.23
   5  -7  -8  354.41   19.27
   5  -7  -8  301.15   22.58
   5  -7  -8  368.21   23.97
   5  -7  -7   22.51    6.20
   5  -7  -7   16.31    6.54
   5  -7  -7   18.79    6.55
   5  -7  -6   58.83   11.56
   5  -7  -5   10.64    6.35
   5  -7  -5   16.07   14.05
   5  -7  -5   13.59    7.12
   5  -7  -4   32.32   17.79
   5  -7  -4   21.86    9.30
  -5   7   4   25.91    6.99
   5  -7  -4   28.77   15.10
   5  -7  -4   26.77    6.91
   5  -7  -3  188.09   33.45
   5  -7  -3  235.00   37.89
   5  -7  -3  169.08   56.68
  -5   7   3  215.70   41.43
   5  -7  -3  247.28   22.10
   5  -7  -2  727.62   87.78
   5  -7  -2  785.55  156.77
  -5   7   2  954.15   93.82
   5  -7  -2 1059.92   51.30
   5  -7  -1  337.91  155.07
   5  -7  -1  398.15   94.07
   5  -7   0  921.65  164.72
   5  -7   0  947.56  279.92
  -5   7   0  545.88   84.60
  -5   7  -1  201.03   51.46
   5  -7   2  -34.22  188.64
  -5   7  -2   39.97   21.71
   5  -7   2  226.92  106.34
   5  -7   3  146.74  154.41
   5  -7   3   57.01   65.67
  -5   7  -4  254.81   59.61
   5  -7   4  234.12  132.55
   5  -7   4  243.55   78.17
   5  -7   5 1953.68  158.52
  -5   7  -5 1599.69  126.76
   5  -7   5 1809.00  269.08
  -5   7  -5 1747.34   68.43
   5  -7   6  688.82   84.82
   5  -7   6  697.60  138.76
  -5   7  -6  626.94   70.66
  -5   7  -6  762.09   42.21
   5  -7   7   89.28   50.17
  -5   7  -7   69.38   20.92
  -5   7  -7   99.28   14.63
   5  -7   7   56.81   22.76
  -5   7  -8   25.33    8.14
   5  -7   8   25.73   12.18
  -5   7  -8   16.82    5.86
  -5   7  -9  190.41   18.59
  -5   7 -10   38.38    8.47
  -5   7 -11  172.47   15.47
   5  -7  11  176.83   21.74
  -5   7 -12  250.65   16.33
   5  -7  12  272.97   21.36
   5  -7  12  280.62   24.61
  -5   7 -13  488.86   21.53
   5  -7  13  487.77   25.24
   5  -7  13  528.36   27.38
   5  -6 -10  168.89   11.50
   5  -6  -9   61.20    8.94
   5  -6  -9   67.75    9.76
   5  -6  -8  364.85   22.73
   5  -6  -8  373.73   28.12
   5  -6  -8  338.54   26.04
   5  -6  -7    1.25    1.66
   5  -6  -7   15.24    6.47
   5  -6  -7    2.90    7.07
   5  -6  -6  201.87   18.50
   5  -6  -6  177.25   20.76
   5  -6  -6  151.74   22.83
   5  -6  -5   11.96    7.28
   5  -6  -5   67.29   22.70
   5  -6  -5    9.51    7.08
   5  -6  -5   51.59   11.91
   5  -6  -4   11.89    8.90
   5  -6  -4  -13.51   13.82
  -5   6   4   11.70    4.44
   5  -6  -4   19.08   14.97
   5  -6  -4   12.25    6.50
   5  -6  -3  235.55   43.12
   5  -6  -3  383.31   47.81
   5  -6  -3  244.09   77.68
  -5   6   3  289.58   45.97
   5  -6  -3  337.44   25.60
   5  -6  -2  520.10   77.31
   5  -6  -2  723.54   65.14
   5  -6  -2  454.00  125.28
  -5   6   2  498.80   65.96
   5  -6  -2  616.20   37.02
   5  -6  -1  142.13  130.28
  -5   6   1  161.64   48.10
   5  -6  -1   26.00   52.62
   5  -6   0  367.97  167.65
  -5   6   0  266.80   59.52
   5  -6   0  333.92  108.62
  -5   6  -1  102.18   39.75
   5  -6   2  -35.04  157.41
  -5   6  -2   27.91   27.74
   5  -6   2   93.54   89.02
   5  -6   3   26.15   72.87
   5  -6   3   34.94   50.56
   5  -6   4  209.45  140.81
  -5   6  -4   96.95   41.21
   5  -6   4   46.74   52.02
   5  -6   5  617.68  101.54
   5  -6   5  694.77  177.26
  -5   6  -5  827.83   90.08
  -5   6  -5  759.68   41.56
   5  -6   6  396.30   67.82
  -5   6  -6  511.33   35.80
   5  -6   6  305.43  103.66
  -5   6  -6  380.04   56.80
   5  -6   7   79.33   26.89
  -5   6  -7  130.48   18.94
   5  -6   7   81.26   49.54
  -5   6  -7  123.57   29.04
   5  -6   8  110.85   25.55
  -5   6  -8  111.98   17.22
  -5   6  -8   96.60   14.62
   5  -6   8  166.58   36.45
  -5   6  -8  100.74   24.14
  -5   6  -9  347.47   28.27
   5  -6   9  367.29   54.93
  -5   6  -9  268.67   23.26
  -5   6 -10   20.09    6.84
  -5   6 -10   29.12    6.42
  -5   6 -11   84.66   11.59
  -5   6 -12  188.33   15.95
   5  -6  12  236.13   26.20
  -5   6 -13  584.58   26.65
   5  -6  13  526.68   30.58
   5  -6  13  546.08   33.10
   5  -6  14   34.27    6.47
   5  -6  14   32.00    6.42
   5  -5 -11    5.36    2.61
   5  -5 -11    0.27    0.72
   5  -5 -10   35.27    5.87
   5  -5 -10   38.06    6.66
   5  -5  -9   19.85    5.57
   5  -5  -9   22.34    7.45
   5  -5  -9   15.49    5.01
   5  -5  -8   57.64    9.33
   5  -5  -8   52.98   11.11
   5  -5  -8   53.86   11.45
   5  -5  -7   15.51    6.05
   5  -5  -7   13.72    4.23
   5  -5  -7   13.97    5.70
   5  -5  -7    2.27    3.18
   5  -5  -7   12.19    6.47
   5  -5  -6   13.00    5.60
   5  -5  -6   33.92   15.04
   5  -5  -6   52.89   12.30
   5  -5  -6   31.22   11.60
   5  -5  -6   24.48   10.41
   5  -5  -5  263.86   23.20
   5  -5  -5  230.73   34.83
   5  -5  -5  276.41   27.18
   5  -5  -5  206.67   29.43
   5  -5  -5  260.15   21.58
   5  -5  -4   42.00   14.35
   5  -5  -4   44.59   19.97
   5  -5  -4    5.51   21.83
  -5   5   4   63.75   24.13
   5  -5  -3  421.00   48.09
   5  -5  -3  213.62   42.72
  -5   5   3  293.85   45.62
   5  -5  -3  224.04   82.96
   5  -5  -3  348.51   25.38
   5  -5  -2   65.40   34.87
  -5   5   2   47.40   19.45
   5  -5  -2   68.93   31.89
  -5   5   1   34.99   24.33
   5  -5  -1   57.92   44.45
  -5   5   0  233.35   51.42
   5  -5   0  301.49   87.13
  -5   5  -1   97.31   48.55
  -5   5  -2  251.46   72.32
   5  -5   2  271.80  117.22
   5  -5   3  455.89  119.20
  -5   5  -3  440.06   26.51
  -5   5  -4   17.38   21.92
   5  -5   4   29.91   34.31
  -5   5  -4   28.54    8.49
   5  -5   5  184.27   32.10
  -5   5  -5  138.83   34.79
   5  -5   5  129.26   42.82
  -5   5  -5  185.91   20.00
   5  -5   6    6.30    4.25
  -5   5  -6    4.51    8.96
   5  -5   6  -16.46   12.02
  -5   5  -6    7.99    8.28
   5  -5   7  240.72   38.78
   5  -5   7  113.30   57.20
  -5   5  -7  208.78   36.86
   5  -5   7  181.47   44.38
  -5   5  -7  222.65   26.58
   5  -5   8  491.91   58.89
  -5   5  -8  650.62   45.42
  -5   5  -8  684.01   41.24
  -5   5  -8  600.04   60.16
   5  -5   8  500.20   99.43
  -5   5  -9   31.26   12.63
  -5   5  -9    8.18    5.42
  -5   5 -10  186.96   22.07
   5  -5  10  188.36   40.55
  -5   5 -11   53.82   11.04
   5  -5  11   34.69   17.13
  -5   5 -11   40.16    7.37
  -5   5 -12    6.04    4.00
  -5   5 -12    8.96    3.57
   5  -5  13  208.95   21.68
  -5   5 -13  185.21   12.48
  -5   5 -14    4.01    2.67
   5  -5  14    3.46    2.71
   5  -5  14    5.65    3.62
  -5   5 -15   73.88    6.73
  -5   5 -15   72.62    6.64
   5  -5  15   65.92    6.62
   5  -5  15   61.66    6.17
   5  -4 -11   32.67    5.46
   5  -4 -11   29.22    5.57
   5  -4 -10    4.60    3.22
   5  -4 -10    5.94    3.68
   5  -4  -9  334.29   20.07
   5  -4  -9  337.85   21.81
   5  -4  -9  320.27   22.11
   5  -4  -9  288.16   25.17
   5  -4  -9  295.17   22.77
   5  -4  -8   29.04    8.47
   5  -4  -8   16.50    4.65
   5  -4  -8   14.78    4.92
   5  -4  -8   28.22    8.26
   5  -4  -8   30.70    9.35
   5  -4  -8   22.59    8.61
   5  -4  -8   20.81    6.41
   5  -4  -7   39.22    9.66
   5  -4  -7   22.71    6.33
   5  -4  -7   29.81    9.40
   5  -4  -7   30.69    8.61
   5  -4  -7   35.99    9.98
   5  -4  -7   34.25   10.37
   5  -4  -7   22.23    8.88
   5  -4  -6  151.07   30.55
   5  -4  -6  174.99   23.30
   5  -4  -6  172.05   19.58
   5  -4  -6  173.23   28.49
   5  -4  -5 1066.36   60.76
   5  -4  -5 1157.70   55.87
   5  -4  -5 1049.90   78.12
   5  -4  -5 1192.75   62.44
   5  -4  -5 1078.22   49.69
   5  -4  -4   62.12   19.64
   5  -4  -4   20.46   12.27
   5  -4  -4    3.86   13.24
  -5   4   4   42.99   13.49
   5  -4  -4    5.84   28.98
  -5   4   4   24.61   19.83
   5  -4  -3   29.86   10.45
   5  -4  -3   14.24    6.46
   5  -4  -3   -8.01   10.86
   5  -4  -3   11.88    8.09
  -5   4   3    5.55    7.61
   5  -4  -3   16.62    6.13
   5  -4  -2  116.82   17.87
  -5   4   2  107.04   27.37
   5  -4  -2   85.59   33.64
   5  -4  -1  276.81   23.52
  -5   4   1  261.57   48.18
   5  -4  -1  291.94   61.32
  -5   4   0  346.08   64.01
   5  -4   0  474.19   86.93
  -5   4  -1  434.17   91.73
   5  -4   2  890.81  126.77
  -5   4  -2  797.53  109.63
  -5   4  -2  836.12   37.86
   5  -4   3  749.46  105.74
  -5   4  -3  878.33   39.71
  -5   4  -4  196.10   50.75
   5  -4   4  102.27   35.46
   5  -4   5   64.29   19.27
  -5   4  -5   31.93   20.43
  -5   4  -5   51.32   13.29
   5  -4   5   20.80   21.66
   5  -4   6  312.02   38.87
  -5   4  -6  205.06   39.07
  -5   4  -6  273.26   28.00
   5  -4   6  154.51   50.53
   5  -4   7   76.94   20.73
  -5   4  -7   51.57   19.82
   5  -4   7   32.96   10.90
  -5   4  -7   63.82   14.68
  -5   4  -8  787.04   52.90
   5  -4   8  867.94   75.62
  -5   4  -8  663.61   62.71
   5  -4   8  692.86  118.22
  -5   4  -8  758.15   43.42
  -5   4  -9  563.00   45.97
   5  -4   9  644.06   69.76
  -5   4 -10  700.04   44.36
   5  -4  10  608.94   72.33
  -5   4 -11   13.68    5.59
  -5   4 -11   21.82    6.15
  -5   4 -12  170.60   15.93
  -5   4 -13   21.75    7.04
   5  -4  13   34.22   13.28
  -5   4 -13   26.14    6.73
  -5   4 -14   20.01    4.71
   5  -4  14   18.80    5.31
   5  -4  14   20.04    5.66
  -5   4 -14   17.24    3.61
  -5   4 -15  211.73   13.67
   5  -4  15  202.25   13.23
  -5   4 -15  228.70   12.72
  -5   4 -16  377.98   14.87
   5  -3 -12   91.29    8.68
   5  -3 -12   70.46    7.48
   5  -3 -11   52.14    7.52
   5  -3 -11   40.77    6.69
   5  -3 -10    7.59    2.47
   5  -3 -10    9.42    3.95
   5  -3 -10    4.85    3.20
   5  -3 -10   10.12    2.79
   5  -3  -9  437.98   27.28
   5  -3  -9  383.39   27.19
   5  -3  -9  342.09   26.40
   5  -3  -9  388.48   25.79
   5  -3  -9  381.64   30.17
   5  -3  -9  352.72   25.66
   5  -3  -8    3.66    4.91
   5  -3  -8    6.03    4.68
   5  -3  -8   -3.17    3.89
   5  -3  -8    8.66    5.57
   5  -3  -8   -1.19    4.54
   5  -3  -8   14.87    5.10
   5  -3  -8    6.87    6.36
   5  -3  -8    4.70    7.45
   5  -3  -7   36.91   10.28
   5  -3  -7   26.61    7.36
   5  -3  -7   19.83    9.44
   5  -3  -7   20.35    6.49
   5  -3  -6  359.84   33.19
   5  -3  -6  347.85   29.41
   5  -3  -6  411.71   36.21
   5  -3  -5  858.61   52.70
   5  -3  -5 1010.53   51.57
   5  -3  -5  897.87   53.97
   5  -3  -5  818.30   65.98
   5  -3  -4   13.61   12.05
   5  -3  -4   13.30   10.76
   5  -3  -4    8.12    7.52
   5  -3  -4   35.02   22.29
  -5   3   4   11.37   10.44
  -5   3   4    4.91    7.08
   5  -3  -3    4.45    5.72
   5  -3  -3   -1.40    3.32
   5  -3  -3   12.50   10.37
  -5   3   3    5.28    5.51
  -5   3   3    1.72    6.29
   5  -3  -3    1.12    1.36
   5  -3  -2   65.23   13.04
  -5   3   2   66.20   24.82
   5  -3  -2   58.31   20.05
  -5   3   1   64.26   26.72
   5  -3  -1   61.16   22.01
  -5   3   0  607.86   77.43
  -5   3  -1  220.49   56.02
  -5   3  -2  738.82   93.53
  -5   3  -2  808.01   36.40
  -5   3  -3  624.05   31.61
   5  -3   4  108.46   22.12
  -5   3  -4   16.51   26.83
   5  -3   5  145.86   22.16
  -5   3  -5  144.15   17.90
  -5   3  -5  131.19   31.68
   5  -3   5  144.00   33.89
  -5   3  -5  140.88   16.07
   5  -3   6  104.21   19.96
  -5   3  -6  141.37   32.19
  -5   3  -6  128.79   19.20
   5  -3   6  136.11   33.62
  -5   3  -7    8.69    6.04
   5  -3   7    2.68    5.24
  -5   3  -7    1.74    3.47
   5  -3   7   -6.25   11.74
  -5   3  -7    0.87    6.75
   5  -3   8  617.60   59.89
  -5   3  -8  513.44   34.36
  -5   3  -8  498.66   51.87
  -5   3  -8  598.46   50.26
  -5   3  -9  296.29   25.49
   5  -3   9  356.76   53.68
  -5   3  -9  289.57   33.09
  -5   3 -10 1102.97   51.04
  -5   3 -11   73.66   11.03
  -5   3 -12  114.02   14.37
  -5   3 -12  125.33   14.52
  -5   3 -13   33.56    8.81
  -5   3 -13   41.62    8.68
  -5   3 -14   11.01    3.80
   5  -3  14   10.55    5.12
  -5   3 -14   10.84    2.94
  -5   3 -15  222.59   14.54
  -5   3 -15  225.53   14.73
  -5   3 -16  476.72   19.90
  -5   3 -16  464.02   19.65
  -5   3 -16  445.31   19.35
   5  -2 -12   16.47    3.04
   5  -2 -12   17.81    3.98
   5  -2 -12   16.44    4.18
   5  -2 -11   -2.59    1.42
   5  -2 -11    2.19    2.53
   5  -2 -11   -2.00    2.06
   5  -2 -11   -2.66    2.85
   5  -2 -10  138.94   13.70
   5  -2 -10  169.99   15.76
   5  -2 -10  158.38   15.10
   5  -2 -10  149.34   16.61
   5  -2  -9   36.67   10.71
   5  -2  -9   19.55    8.70
   5  -2  -9   16.02    5.55
   5  -2  -9   21.87    9.32
   5  -2  -9   20.52    5.55
   5  -2  -8  202.01   23.71
   5  -2  -8  251.16   25.86
   5  -2  -8  231.51   22.50
   5  -2  -8  220.52   20.72
   5  -2  -8  225.23   24.53
   5  -2  -8  184.10   20.81
   5  -2  -7   16.59    7.07
   5  -2  -7   13.25    6.51
   5  -2  -7   10.51    5.40
   5  -2  -7   15.94    9.16
   5  -2  -7    4.22    4.59
   5  -2  -6    1.33    4.02
   5  -2  -6    6.33    9.13
   5  -2  -6    8.40    4.46
   5  -2  -6   12.74    9.74
   5  -2  -6   18.51   13.16
   5  -2  -6   26.12   13.86
   5  -2  -5  100.82   16.15
   5  -2  -5  142.57   19.11
   5  -2  -5  102.50   16.68
   5  -2  -5  102.70   20.80
   5  -2  -4   19.91    7.96
   5  -2  -4   17.39    8.70
  -5   2   4   13.39    6.21
  -5   2   4    1.48    7.94
   5  -2  -3  181.53   21.57
  -5   2   3  209.45   35.67
  -5   2   3  209.54   21.49
  -5   2   2  281.46   26.56
  -5   2   2  333.68   46.15
  -5   2   1   27.30   18.83
  -5   2   0  989.78   94.96
   5  -2   0 1315.27  121.74
  -5   2  -1   41.03   22.55
   5  -2   1   81.98   28.81
  -5   2  -2   70.63   23.46
   5  -2   2  137.83   40.28
  -5   2  -2  124.75   11.66
  -5   2  -3  175.48   14.80
   5  -2   3  215.82   57.84
  -5   2  -4  137.40   40.50
   5  -2   4  133.76   49.62
   5  -2   5  625.18   45.58
  -5   2  -5  818.45   77.83
  -5   2  -5  628.58   36.01
   5  -2   5  721.27   87.79
   5  -2   6  235.62   29.14
  -5   2  -6  236.13   41.34
  -5   2  -6  250.28   24.85
  -5   2  -6  222.67   24.70
  -5   2  -6  260.61   26.18
   5  -2   6  290.27   52.76
   5  -2   7  108.55   22.00
  -5   2  -7   68.51   12.17
  -5   2  -7   56.12   16.77
  -5   2  -7   96.63   19.54
  -5   2  -8  278.27   23.79
  -5   2  -8  208.73   20.21
  -5   2  -8  197.33   31.07
  -5   2  -8  180.63   23.36
  -5   2  -9   12.07    7.25
  -5   2  -9   -1.16    5.17
  -5   2 -10  548.18   34.16
  -5   2 -11  148.12   18.59
  -5   2 -11  137.92   15.33
  -5   2 -11  149.19   16.12
  -5   2 -12   52.48   11.02
  -5   2 -12   45.92    9.62
  -5   2 -12   51.68    9.60
  -5   2 -12   57.00   10.91
  -5   2 -13  457.45   28.00
  -5   2 -13  413.35   25.64
  -5   2 -13  374.71   22.20
  -5   2 -13  491.88   29.45
  -5   2 -14    9.73    3.92
  -5   2 -14   10.75    4.19
  -5   2 -15   52.63    6.97
  -5   2 -15   48.32    6.49
  -5   2 -15   43.18    6.29
  -5   2 -16   83.51    7.30
  -5   2 -16   86.80    7.96
  -5   2 -17    8.03    1.70
   5  -1 -13    4.99    1.88
   5  -1 -13    0.89    1.19
   5  -1 -12  261.97   15.38
   5  -1 -12  292.54   18.61
   5  -1 -12  282.71   17.92
   5  -1 -11   37.94    6.35
   5  -1 -11   34.21    7.09
   5  -1 -11   24.58    5.80
   5  -1 -10  261.63   21.57
   5  -1 -10  252.97   20.66
   5  -1 -10  228.43   19.46
   5  -1 -10  239.54   21.31
   5  -1  -9  265.29   25.01
   5  -1  -9  237.95   25.11
   5  -1  -9  239.24   21.45
   5  -1  -9  231.24   23.30
   5  -1  -8  737.65   50.46
   5  -1  -8  643.25   39.75
   5  -1  -8  686.79   40.75
   5  -1  -8  653.15   42.91
   5  -1  -8  646.65   39.78
   5  -1  -7    3.35    3.27
   5  -1  -7    0.64    3.50
   5  -1  -7    3.03    8.28
   5  -1  -7    1.18    4.79
   5  -1  -7   12.81    6.08
   5  -1  -7    7.33    2.47
   5  -1  -7   -5.57    8.26
   5  -1  -6  571.97   39.79
   5  -1  -6  489.46   35.33
   5  -1  -6  416.63   44.37
   5  -1  -6  516.69   42.14
   5  -1  -6  441.31   35.38
   5  -1  -6  400.01   37.26
   5  -1  -5   36.59   10.16
   5  -1  -5   22.10    9.46
   5  -1  -5   55.30   21.01
   5  -1  -4  203.06   23.66
   5  -1  -4  153.59   19.10
  -5   1   4  139.64   26.43
   5  -1  -4  226.30   29.40
  -5   1   3  589.13   37.27
  -5   1   3  576.55   56.21
  -5   1   2 1329.25   93.94
  -5   1   2 1315.40   63.84
   5  -1  -2 1167.10  100.08
   5  -1  -1  194.58   46.40
  -5   1   0  476.41   60.59
  -5   1   0  524.51   39.91
  -5   1  -1  404.76   56.96
  -5   1  -1  372.23   34.36
  -5   1  -2   27.99   19.38
   5  -1   2    9.68   11.29
  -5   1  -2   29.69    6.07
  -5   1  -3   31.74   10.19
   5  -1   3    5.19   24.95
  -5   1  -4    6.75   10.17
   5  -1   4   29.97   11.65
  -5   1  -4   28.18   21.13
  -5   1  -4   48.28   11.34
   5  -1   4   21.07   30.77
   5  -1   5 2192.99   92.69
  -5   1  -5 2626.87  143.79
  -5   1  -5 2559.67  100.35
   5  -1   5 2417.76  153.61
  -5   1  -5 2325.61   84.56
  -5   1  -6  610.20   61.62
   5  -1   6  585.66   43.58
  -5   1  -6  493.56   39.91
  -5   1  -6  568.77   39.08
   5  -1   6  533.59   65.03
  -5   1  -6  593.94   39.94
  -5   1  -7  218.21   21.22
  -5   1  -7  257.78   35.92
   5  -1   7  264.09   39.47
  -5   1  -8   12.62    6.76
  -5   1  -8   17.78    4.29
  -5   1  -8   16.23    7.94
  -5   1  -9  471.73   35.12
  -5   1  -9  497.31   32.68
  -5   1 -10   10.30    9.63
  -5   1 -10    9.86    6.98
  -5   1 -10    0.92    4.58
  -5   1 -11  133.67   17.35
  -5   1 -11  129.08   15.05
  -5   1 -11  124.34   15.15
  -5   1 -12  551.24   34.51
  -5   1 -12  534.02   33.50
  -5   1 -12  594.45   34.83
  -5   1 -12  552.35   34.18
  -5   1 -13 1429.48   58.26
  -5   1 -13 1348.91   57.20
  -5   1 -13 1352.91   54.85
  -5   1 -13 1498.96   60.48
  -5   1 -14    9.59    3.30
  -5   1 -14   11.87    4.80
  -5   1 -14   10.20    5.21
  -5   1 -15   -3.30    1.95
  -5   1 -15    1.06    2.05
  -5   1 -15    4.57    3.46
  -5   1 -16   17.22    3.22
  -5   1 -16   21.65    4.63
  -5   1 -16   18.45    3.32
  -5   1 -17   82.82    6.92
   5   0 -13    7.41    2.23
   5   0 -13    7.51    2.61
   5   0 -13    1.14    0.80
   5   0 -13    8.26    2.84
   5   0 -12  205.03   14.32
   5   0 -12  233.86   16.62
   5   0 -12  208.90   14.97
   5   0 -12  227.16   16.32
   5   0 -11    0.73    2.06
   5   0 -11   -0.41    2.17
   5   0 -11    1.81    2.11
   5   0 -11    4.02    3.74
   5   0 -10  221.14   20.63
   5   0 -10  199.47   19.63
   5   0 -10  195.16   19.47
   5   0 -10  202.63   18.92
   5   0  -9  215.26   24.41
   5   0  -9  184.95   21.53
   5   0  -9  160.65   18.25
   5   0  -8  645.09   47.97
   5   0  -8  557.78   37.97
   5   0  -7   24.84    7.60
   5   0  -7   13.31    5.95
   5   0  -7   15.98    5.02
   5   0  -7   17.37    6.92
   5   0  -7   -1.44    6.85
   5   0  -7    8.40    4.05
   5   0  -6  333.32   27.84
   5   0  -6  367.92   31.98
   5   0  -6  196.47   34.00
   5   0  -6  270.93   25.28
   5   0  -6  254.33   27.59
   5   0  -5   -2.38    5.11
   5   0  -5    6.87    4.12
   5   0  -5   10.89   13.59
   5   0  -4   39.12   10.24
   5   0  -4   51.38   11.35
   5   0  -4   51.98   10.92
   5   0  -4   50.44   14.34
  -5   0   3  814.31   43.39
  -5   0   3  763.33   62.31
   5   0  -3  775.12   71.19
  -5   0   2 1164.74   58.01
  -5   0   2 1147.43   84.76
   5   0  -2 1032.21   80.48
  -5   0   1  250.04   27.44
  -5   0   1  227.91   40.05
   5   0  -1  205.02   36.97
  -5   0   0  969.25   55.82
  -5   0   0  980.87   85.54
  -5   0  -1  178.38   36.64
  -5   0  -1  182.48   23.05
  -5   0  -2    2.68    4.61
  -5   0  -2   13.60   16.14
  -5   0  -3  252.07   17.94
   5   0   4   73.18   12.07
  -5   0  -4   78.96   19.03
  -5   0  -4   80.06   27.72
  -5   0  -5 2298.34   89.95
  -5   0  -5 2269.18  128.57
  -5   0  -5 2027.28   74.46
  -5   0  -6  725.08   42.49
  -5   0  -6  748.11   65.42
  -5   0  -6  596.26   43.73
  -5   0  -7  529.80   33.01
  -5   0  -7  505.10   49.21
  -5   0  -7  530.29   43.30
  -5   0  -8  132.31   14.10
   5   0   8  133.57   24.30
  -5   0  -8   94.11   13.83
  -5   0  -9  318.00   30.66
  -5   0  -9  268.61   24.56
  -5   0  -9  351.11   25.21
  -5   0  -9  265.22   24.11
  -5   0 -10   34.15   10.30
  -5   0 -10   25.32    6.64
  -5   0 -10   30.77    7.47
  -5   0 -11  225.96   21.04
  -5   0 -11  221.51   19.64
  -5   0 -11  215.23   21.09
  -5   0 -11  211.53   20.49
  -5   0 -12  423.51   28.99
  -5   0 -12  429.44   30.65
  -5   0 -12  458.99   31.54
  -5   0 -12  421.02   27.73
  -5   0 -12  442.98   30.25
  -5   0 -13 1539.88   60.68
  -5   0 -13 1541.68   64.00
  -5   0 -13 1455.82   60.34
  -5   0 -13 1636.23   64.59
  -5   0 -14   20.13    4.60
  -5   0 -14   17.65    3.38
  -5   0 -14   21.72    5.52
  -5   0 -14   15.69    4.42
  -5   0 -14   18.34    5.17
  -5   0 -14   27.93    6.72
  -5   0 -15   16.26    3.78
  -5   0 -15   14.89    3.64
  -5   0 -15   13.17    3.77
  -5   0 -15   14.28    3.33
  -5   0 -16    9.47    3.65
  -5   0 -16    5.20    2.22
  -5   0 -17   20.53    3.62
  -5   0 -17   22.78    3.43
   5   1 -13   76.02    7.19
   5   1 -13   77.09    7.75
   5   1 -13   70.02    6.74
   5   1 -13   70.22    8.05
   5   1 -12   -0.28    2.14
   5   1 -12   -0.32    1.41
   5   1 -12    0.27    1.53
   5   1 -12   -0.31    1.78
   5   1 -11    8.03    2.42
   5   1 -11   16.05    5.49
   5   1 -11    6.18    2.53
   5   1 -11    8.69    3.37
   5   1 -10   10.78    4.13
   5   1 -10   10.83    5.10
   5   1 -10    9.09    5.59
   5   1 -10    5.06    1.77
   5   1 -10   10.72    4.74
   5   1  -9  210.32   23.04
   5   1  -9  191.99   19.68
   5   1  -9  210.98   21.01
   5   1  -9  186.54   18.96
   5   1  -9  258.92   28.22
   5   1  -8   38.11   12.22
   5   1  -8   52.31   11.35
   5   1  -8   47.00   11.80
   5   1  -7   12.51    6.66
   5   1  -7   32.48   17.13
   5   1  -6    2.63    3.52
   5   1  -6   15.75    8.10
   5   1  -6    8.13    5.10
   5   1  -5  419.71   32.25
   5   1  -5  405.67   35.00
   5   1  -5  459.20   37.99
   5   1  -5  535.70   53.14
   5   1  -4    1.41    4.37
   5   1  -4   -2.38    5.47
   5   1  -4   11.61   14.25
   5   1  -4   -1.52    4.54
  -5  -1   4   -3.57    5.32
  -5  -1   3   73.68   10.72
   5   1  -3   90.87   14.31
   5   1  -3   95.99   15.45
   5   1  -3   96.28   15.98
  -5  -1   2   25.19    8.25
   5   1  -2   12.91    4.28
   5   1  -2   19.04    9.77
  -5  -1   1    9.23    4.94
  -5  -1   1    1.64    6.75
  -5  -1   0  603.20   42.20
  -5  -1   0  590.89   61.81
  -5  -1  -1   -8.20   11.73
  -5  -1  -1    6.27    1.74
  -5  -1  -1   10.24    9.43
  -5  -1  -2   98.76   18.04
  -5  -1  -2   85.25   26.35
   5   1   2   94.24   28.01
   5   1   3  331.91   52.07
   5   1   4    8.19    2.16
  -5  -1  -4   12.50    4.82
  -5  -1  -4    3.91    9.86
  -5  -1  -4   19.44    9.17
   5   1   5  656.68   33.68
  -5  -1  -5  819.26   46.55
  -5  -1  -5  763.46   69.00
  -5  -1  -5  708.94   48.50
  -5  -1  -6   35.06    8.65
  -5  -1  -6   24.70    8.70
  -5  -1  -6   23.80    6.37
  -5  -1  -7  147.94   15.47
  -5  -1  -7  148.28   23.02
  -5  -1  -7  137.69   15.54
  -5  -1  -8  717.28   35.83
  -5  -1  -8  736.05   37.18
  -5  -1  -8  738.32   50.08
  -5  -1  -8  600.92   37.02
  -5  -1  -9    0.73    2.83
  -5  -1  -9   11.80    5.62
  -5  -1  -9   -0.50    2.55
  -5  -1  -9    6.74    5.26
  -5  -1 -10  377.53   27.62
  -5  -1 -10  359.44   26.65
  -5  -1 -10  310.18   27.43
  -5  -1 -11  111.60   14.29
  -5  -1 -11  105.51   13.90
  -5  -1 -11   91.19   14.16
  -5  -1 -11   96.14   13.95
  -5  -1 -12   15.61    4.32
  -5  -1 -12   23.44    7.35
  -5  -1 -12   25.90    7.00
  -5  -1 -12   17.45    6.98
  -5  -1 -13  179.91   15.73
  -5  -1 -13  177.46   16.16
  -5  -1 -13  181.90   19.15
  -5  -1 -13  168.77   16.57
  -5  -1 -13  174.10   16.98
  -5  -1 -13  170.13   16.26
  -5  -1 -13  186.80   18.35
  -5  -1 -14   12.53    4.43
  -5  -1 -14   11.31    3.20
  -5  -1 -14   15.66    4.56
  -5  -1 -14    7.42    3.60
  -5  -1 -14    7.57    3.06
  -5  -1 -14    5.47    2.80
  -5  -1 -15  182.31   13.15
  -5  -1 -15  189.65   16.05
  -5  -1 -16  154.07   11.88
  -5  -1 -16  169.38   12.02
  -5  -1 -17    2.20    1.69
  -5  -1 -17    0.18    1.02
   5   2 -13  245.19   14.44
   5   2 -13  237.63   13.48
   5   2 -13  267.55   15.53
   5   2 -12  164.20   13.86
   5   2 -12  154.62   12.37
   5   2 -12  174.93   14.12
   5   2 -11   67.36   10.43
   5   2 -11   62.62    8.63
   5   2 -11   58.39    8.69
   5   2 -10   -1.03    3.73
   5   2 -10   -1.37    3.27
   5   2  -9  865.11   51.07
   5   2  -9  844.72   49.48
   5   2  -9  774.01   44.14
   5   2  -9  763.55   43.37
   5   2  -9  907.14   54.51
   5   2  -8   12.18    6.47
   5   2  -8   10.41    5.28
   5   2  -8   14.44    9.80
   5   2  -8    6.99    6.47
   5   2  -8   14.50    9.54
   5   2  -7    6.05    3.88
   5   2  -7    4.04    4.11
   5   2  -7    4.74   10.85
   5   2  -6  268.86   25.16
   5   2  -6  255.95   26.31
   5   2  -6  229.49   27.74
   5   2  -6  289.01   31.76
   5   2  -5 1412.85   65.56
   5   2  -5 1258.84   68.00
   5   2  -4   15.06    6.34
   5   2  -4   13.90    7.22
  -5  -2   4   16.03    8.05
   5   2  -4    4.71    4.27
  -5  -2   3    5.42    4.08
   5   2  -3    1.92    5.13
   5   2  -3    3.44    5.81
   5   2  -3    1.11    6.70
  -5  -2   3    2.06    7.95
  -5  -2   2  164.49   17.70
   5   2  -2  158.03   17.77
  -5  -2   2  150.08   25.64
   5   2  -2  140.54   26.39
   5   2  -1  575.00   33.46
  -5  -2   1  497.87   34.88
   5   2  -1  618.63   60.64
   5   2   0  809.83   76.67
  -5  -2  -1  247.88   17.04
  -5  -2  -2 1091.74   42.64
   5   2   2 1133.82  103.70
   5   2   3  951.45   90.46
   5   2   4   93.76   28.59
  -5  -2  -4   63.68   10.54
  -5  -2  -5   40.59    9.47
  -5  -2  -5   43.45   12.34
  -5  -2  -5   40.78    8.41
   5   2   5   61.98   19.90
  -5  -2  -6  344.06   25.62
  -5  -2  -6  375.70   36.70
  -5  -2  -6  351.07   37.56
  -5  -2  -6  400.05   26.18
   5   2   6  377.35   48.53
  -5  -2  -7    1.75    2.07
  -5  -2  -7    4.72    4.04
  -5  -2  -7   -0.45    2.34
  -5  -2  -7   -2.82    3.93
  -5  -2  -8 1403.91   56.20
  -5  -2  -8 1642.90   62.71
  -5  -2  -8 1570.12   75.15
  -5  -2  -8 1336.88   59.87
  -5  -2  -9  357.20   29.30
  -5  -2  -9  296.98   24.52
  -5  -2  -9  310.70   28.23
  -5  -2  -9  295.61   23.81
  -5  -2 -10 1190.56   52.60
  -5  -2 -10 1075.89   52.68
  -5  -2 -10 1014.89   54.53
  -5  -2 -11    7.38    5.08
  -5  -2 -11   13.07    6.31
  -5  -2 -11   11.31    5.43
  -5  -2 -11   -1.13    2.29
  -5  -2 -11    5.35    2.02
  -5  -2 -11   11.88    4.63
  -5  -2 -11    3.62    3.08
  -5  -2 -12  199.86   17.23
  -5  -2 -12  209.61   18.26
  -5  -2 -12  195.17   19.18
  -5  -2 -12  205.62   21.81
  -5  -2 -12  201.61   20.07
  -5  -2 -12  194.99   20.01
  -5  -2 -12  202.16   19.32
  -5  -2 -13    9.15    3.11
  -5  -2 -13   10.33    4.94
  -5  -2 -13    8.70    3.27
  -5  -2 -13   16.00    5.94
  -5  -2 -13    6.85    4.44
  -5  -2 -14   10.81    3.15
  -5  -2 -14   15.65    4.48
  -5  -2 -14   14.22    4.70
  -5  -2 -14   14.95    4.85
  -5  -2 -16  824.29   34.65
  -5  -2 -17   39.59    5.28
   5   3 -13  184.04   10.87
   5   3 -13  225.20   13.89
   5   3 -12   53.03    7.28
   5   3 -12   41.21    6.80
   5   3 -12   45.84    6.29
   5   3 -12   53.05    7.87
   5   3 -11   38.38    6.89
   5   3 -11   30.85    6.73
   5   3 -11   31.34    6.01
   5   3 -10    9.60    4.85
   5   3 -10    4.18    3.01
   5   3 -10    1.77    1.86
   5   3  -9  527.50   36.22
   5   3  -9  471.14   32.47
  -5  -3   9  482.12   30.54
   5   3  -9  527.14   37.00
   5   3  -9  501.85   44.38
   5   3  -9  530.88   38.78
   5   3  -8    2.14    2.46
  -5  -3   8    1.12    3.24
   5   3  -8    3.19    3.30
   5   3  -8   -5.05    6.57
   5   3  -8   -2.85    5.50
   5   3  -8   -4.47    8.58
   5   3  -8   -2.07    7.42
   5   3  -7    2.90    4.41
  -5  -3   7   -2.46    5.12
   5   3  -7    6.32    3.65
   5   3  -7    1.12    3.47
   5   3  -7   -4.39    9.81
  -5  -3   6  122.21   16.68
   5   3  -6  117.19   19.56
   5   3  -6  129.12   22.39
   5   3  -6   59.18   12.14
   5   3  -5  640.02   49.53
   5   3  -5  819.12   57.11
   5   3  -5 1005.96   50.98
  -5  -3   5 1003.41   50.42
   5   3  -5 1162.69   74.07
  -5  -3   4   24.95    9.32
   5   3  -4    9.56    8.03
   5   3  -4   15.95    8.34
   5   3  -4   12.81    6.46
  -5  -3   3   15.59    8.41
   5   3  -3    9.91    5.42
  -5  -3   3   15.58    4.46
   5   3  -3    9.56    5.10
  -5  -3   2   66.70   15.11
   5   3  -2   53.08   18.30
  -5  -3   2   64.74   11.78
   5   3  -2   58.37   12.75
  -5  -3   1  308.25   36.74
   5   3  -1  336.91   43.70
  -5  -3   1  307.62   26.31
   5   3  -1  309.82   26.24
  -5  -3   0  394.78   44.56
  -5  -3   0  386.44   30.86
  -5  -3  -1   67.50   19.69
  -5  -3  -1   58.63    8.93
  -5  -3  -2  803.05   68.17
   5   3   2  861.05   89.87
  -5  -3  -2  831.35   40.73
   5   3   3  453.34   62.90
  -5  -3  -4   75.33   10.05
   5   3   4   65.04   22.46
  -5  -3  -4   51.11   15.02
  -5  -3  -4   40.12    9.27
  -5  -3  -5  213.59   29.28
   5   3   5  210.48   37.22
  -5  -3  -5  178.21   18.40
  -5  -3  -5  175.04   14.00
  -5  -3  -6  211.48   18.27
  -5  -3  -6  220.23   29.16
   5   3   6  259.59   39.55
  -5  -3  -6  206.65   18.63
  -5  -3  -6  230.97   16.58
  -5  -3  -6  243.43   30.62
  -5  -3  -7   10.84    5.49
  -5  -3  -7    8.76    2.82
   5   3   7   13.04   10.04
  -5  -3  -7   12.33    5.25
  -5  -3  -7   17.65    4.21
  -5  -3  -8 1251.38   65.86
   5   3   8 1222.97   77.62
  -5  -3  -8 1174.29   51.48
  -5  -3  -8 1133.50   52.42
  -5  -3  -8 1050.14   47.73
  -5  -3  -8 1367.72   55.69
  -5  -3  -9  152.03   20.12
  -5  -3  -9  153.61   16.18
  -5  -3  -9  163.19   16.99
  -5  -3  -9  161.41   19.37
  -5  -3  -9  141.31   15.04
  -5  -3  -9  165.36   16.89
  -5  -3 -10  873.22   42.78
  -5  -3 -10  833.24   41.00
  -5  -3 -10  775.65   43.82
  -5  -3 -10  886.56   43.24
  -5  -3 -11   24.15    5.83
  -5  -3 -11   32.02    7.88
  -5  -3 -11   31.70    8.43
  -5  -3 -11   19.56    5.51
  -5  -3 -11   27.36    7.18
  -5  -3 -12  140.68   14.05
  -5  -3 -12  135.00   16.57
  -5  -3 -12  125.76   15.89
  -5  -3 -12  133.27   16.96
  -5  -3 -12  141.70   15.27
  -5  -3 -13    1.37    2.53
  -5  -3 -13   12.27    4.55
  -5  -3 -13    5.09    4.34
  -5  -3 -13    2.72    4.70
  -5  -3 -13    3.73    3.37
  -5  -3 -14   33.20    5.59
  -5  -3 -14   27.95    7.06
  -5  -3 -14   28.96    6.90
  -5  -3 -14   35.08    7.53
  -5  -3 -14   21.73    4.99
  -5  -3 -15  394.05   24.66
  -5  -3 -15  392.11   23.61
  -5  -3 -16  527.99   26.12
  -5  -3 -16  498.71   25.22
  -5  -3 -17   21.27    3.76
  -5  -3 -17   25.63    4.10
   5   4 -13   21.93    3.73
   5   4 -13   21.96    3.92
   5   4 -12   93.89    9.79
   5   4 -12  102.04    8.86
   5   4 -12   98.87    9.79
  -5  -4  11    0.32    1.32
   5   4 -11   -0.62    1.03
   5   4 -11    0.39    2.39
   5   4 -11   -1.11    1.93
  -5  -4  10   42.85    8.24
   5   4 -10   58.73   10.43
   5   4 -10   62.37    9.34
   5   4 -10   49.88    9.67
   5   4 -10   59.50   14.48
   5   4  -9    0.60    4.32
   5   4  -9   -0.56    2.63
  -5  -4   9    1.63    3.23
   5   4  -9    0.58    3.71
   5   4  -9    1.17    4.22
   5   4  -9   10.21    6.55
   5   4  -8  214.60   22.98
   5   4  -8  213.49   22.26
  -5  -4   8  201.03   21.91
   5   4  -8  222.71   22.05
   5   4  -8  214.36   23.05
   5   4  -8  246.48   32.11
   5   4  -8  214.95   25.32
   5   4  -7    1.40    3.87
  -5  -4   7    2.25    5.51
   5   4  -7   -0.66    2.89
   5   4  -7    1.58    4.12
   5   4  -7    0.67    3.40
   5   4  -7   -1.25    5.18
   5   4  -7    9.19   10.92
   5   4  -6   73.00   13.92
  -5  -4   6   96.14   15.96
   5   4  -6   61.46   16.71
  -5  -4   5   72.48   13.22
   5   4  -5   75.50   13.93
   5   4  -5   92.06   18.63
   5   4  -4   10.87    2.67
   5   4  -4   23.88   11.50
   5   4  -4   13.58    4.41
  -5  -4   4   27.32    9.16
  -5  -4   3  365.89   38.75
  -5  -4   3  369.85   26.43
   5   4  -3  371.34   40.52
  -5  -4   2  251.62   33.74
   5   4  -2  269.13   37.24
  -5  -4   2  226.98   22.45
  -5  -4   1   48.45   11.47
  -5  -4   1   30.25    7.02
   5   4  -1   44.24   12.03
  -5  -4   0  570.22   54.48
  -5  -4   0  525.14   37.65
  -5  -4  -1   86.11   21.36
  -5  -4  -1   88.62   12.51
  -5  -4  -1   91.37   14.80
  -5  -4  -2   15.68   11.71
  -5  -4  -2   12.61    5.26
  -5  -4  -2    1.68    3.64
  -5  -4  -3  223.29   16.14
  -5  -4  -3  221.66   22.21
  -5  -4  -3  238.34   29.12
  -5  -4  -4   -4.09    9.30
  -5  -4  -4    0.64    4.22
  -5  -4  -4    2.08    6.14
  -5  -4  -5 1291.13   51.44
  -5  -4  -5 1236.32   77.72
  -5  -4  -5 1195.51   57.07
  -5  -4  -5 1299.34   50.18
  -5  -4  -5 1275.14   76.25
  -5  -4  -6   58.79    9.09
  -5  -4  -6   57.12   13.84
   5   4   6   72.06   22.06
  -5  -4  -6   74.54   12.00
  -5  -4  -6   63.07    9.29
   5   4   7  258.35   35.56
  -5  -4  -7  226.76   28.00
  -5  -4  -7  232.65   19.60
  -5  -4  -7  216.07   18.27
  -5  -4  -8  253.18   21.09
  -5  -4  -8  314.19   21.15
  -5  -4  -8  293.07   31.57
   5   4   8  272.04   34.73
  -5  -4  -8  314.11   24.71
  -5  -4  -9   63.22   10.86
  -5  -4  -9   63.95   14.53
  -5  -4  -9   50.50    8.19
  -5  -4  -9   60.25   11.99
  -5  -4  -9   48.68    9.20
  -5  -4  -9   50.71    8.05
  -5  -4  -9   59.02    9.25
  -5  -4 -10  134.89   17.55
  -5  -4 -10  131.36   14.41
  -5  -4 -10  122.27   17.48
  -5  -4 -10  148.87   15.23
  -5  -4 -10  146.93   17.25
  -5  -4 -10  146.41   15.85
  -5  -4 -10  102.41   14.68
  -5  -4 -10  157.84   15.67
  -5  -4 -11  144.64   14.69
  -5  -4 -11  144.69   18.14
  -5  -4 -11  130.69   17.40
  -5  -4 -11  140.21   16.39
  -5  -4 -11  132.35   14.99
  -5  -4 -11  116.37   16.95
  -5  -4 -11  148.39   15.57
  -5  -4 -12   48.56    7.50
  -5  -4 -12   47.36   10.63
  -5  -4 -12   64.19   11.99
  -5  -4 -12   52.45    9.77
  -5  -4 -12   35.94    9.18
  -5  -4 -12   61.64    8.87
  -5  -4 -13  580.48   28.15
  -5  -4 -13  692.10   39.72
  -5  -4 -13  682.04   38.99
  -5  -4 -13  571.49   32.81
  -5  -4 -13  548.52   36.69
  -5  -4 -13  552.28   30.30
  -5  -4 -14    2.88    3.16
  -5  -4 -14    3.00    3.38
  -5  -4 -14    9.20    4.25
  -5  -4 -14   -1.56    3.87
  -5  -4 -15   88.83   10.72
  -5  -4 -15   96.65   10.62
  -5  -4 -15   82.34   10.92
  -5  -4 -15   87.86   11.17
  -5  -4 -16   23.86    5.29
  -5  -4 -16   22.83    4.59
  -5  -4 -16   29.73    5.60
  -5  -4 -17    4.89    2.39
  -5  -4 -17    0.18    0.80
  -5  -4 -17    4.45    1.92
   5   5 -13   -1.10    0.89
   5   5 -13    4.87    1.56
   5   5 -12  282.56   17.07
  -5  -5  12  314.75   17.35
  -5  -5  11   13.00    3.35
   5   5 -11   17.31    4.37
   5   5 -11   12.12    3.39
   5   5 -11   13.79    5.26
   5   5 -10  240.64   20.72
   5   5 -10  233.90   17.55
  -5  -5  10  196.07   18.08
   5   5 -10  220.83   18.34
   5   5  -9  260.94   23.42
   5   5  -9  269.21   22.28
  -5  -5   9  251.22   22.66
   5   5  -9  296.46   34.88
   5   5  -9  272.05   21.74
   5   5  -8  662.20   41.14
   5   5  -8  681.40   41.93
  -5  -5   8  616.83   41.30
   5   5  -8  770.18   60.14
   5   5  -8  665.04   38.72
   5   5  -7    4.09    4.81
  -5  -5   7    2.54    4.97
   5   5  -7    7.41    5.52
   5   5  -7    1.34    6.40
   5   5  -7   -1.24    2.78
   5   5  -7   -1.18    3.42
  -5  -5   6  472.42   31.20
   5   5  -6  452.19   34.22
  -5  -5   6  440.65   40.77
   5   5  -6  453.96   33.51
   5   5  -6  373.54   31.66
  -5  -5   5   25.83    9.87
  -5  -5   5    8.73    7.21
   5   5  -5   23.75    7.01
   5   5  -5   16.35    6.32
   5   5  -4  227.35   23.19
  -5  -5   4  256.28   26.44
   5   5  -4  219.94   24.86
  -5  -5   4  203.64   30.01
   5   5  -4  186.95   27.81
  -5  -5   3  617.42   56.83
   5   5  -3  567.04   41.28
   5   5  -3  615.70   55.84
  -5  -5   3  657.40   38.86
  -5  -5   2 1362.91   62.19
  -5  -5   2 1263.66   87.08
   5   5  -1  277.69   27.73
  -5  -5   1  400.29   31.36
  -5  -5   1  400.98   46.59
  -5  -5   0  788.50   69.76
  -5  -5  -1  330.38   43.90
  -5  -5  -1  297.07   30.16
  -5  -5  -1  321.13   28.01
  -5  -5  -2    3.39    2.84
  -5  -5  -2    2.54    4.70
  -5  -5  -2    7.42    4.99
  -5  -5  -3   10.87    5.28
  -5  -5  -3    5.34    4.40
  -5  -5  -4   13.97    6.69
  -5  -5  -4   16.94    9.90
  -5  -5  -5 2518.12   84.45
  -5  -5  -5 2361.26  122.91
  -5  -5  -5 2471.09   93.97
  -5  -5  -5 2513.75  120.57
  -5  -5  -6  668.10   34.94
  -5  -5  -6  673.79   57.09
  -5  -5  -6  742.82   40.69
  -5  -5  -6  698.56   36.07
  -5  -5  -7  441.04   27.96
  -5  -5  -7  491.39   31.32
   5   5   7  485.35   51.85
  -5  -5  -7  472.22   45.76
  -5  -5  -7  521.95   31.69
  -5  -5  -8   16.70   10.41
  -5  -5  -8   10.14    2.74
   5   5   8    9.28    8.37
  -5  -5  -8   19.91    5.43
  -5  -5  -8   22.09    7.39
  -5  -5  -8   24.14    6.50
  -5  -5  -8    8.74    4.45
  -5  -5  -8   14.35    4.40
  -5  -5  -8   11.39    3.83
  -5  -5  -9  518.31   34.58
  -5  -5  -9  419.68   27.49
  -5  -5  -9  448.60   44.43
  -5  -5  -9  515.12   37.59
  -5  -5  -9  475.80   32.27
  -5  -5  -9  528.37   36.01
  -5  -5  -9  426.20   27.99
  -5  -5  -9  420.92   28.74
  -5  -5  -9  451.95   27.38
  -5  -5 -10    8.40    2.68
  -5  -5 -10    4.57    1.75
  -5  -5 -10    4.52    3.31
  -5  -5 -10   10.20    6.02
  -5  -5 -10    2.23    2.11
  -5  -5 -10    1.33    5.96
  -5  -5 -10    7.24    3.72
  -5  -5 -10    8.74    5.02
  -5  -5 -11  138.51   13.67
  -5  -5 -11  125.22   16.27
  -5  -5 -11  160.26   17.11
  -5  -5 -11  119.44   13.94
  -5  -5 -11  124.88   15.43
  -5  -5 -11  131.77   15.83
  -5  -5 -11  116.25   17.83
  -5  -5 -11  133.25   13.32
  -5  -5 -12  649.93   30.37
  -5  -5 -12  704.88   40.78
  -5  -5 -12  573.49   34.21
  -5  -5 -12  691.02   38.17
  -5  -5 -12  597.77   40.96
  -5  -5 -12  565.87   30.16
  -5  -5 -13 1680.64   65.02
  -5  -5 -13 1771.72   76.75
  -5  -5 -14   28.43    6.53
  -5  -5 -14   21.61    5.81
  -5  -5 -14   27.94    7.42
  -5  -5 -15   -0.33    2.07
  -5  -5 -15    2.07    1.37
  -5  -5 -15    2.84    3.14
  -5  -5 -15    0.86    1.32
  -5  -5 -16   35.78    5.39
  -5  -5 -16   37.38    5.92
  -5  -5 -16   24.97    5.33
  -5  -5 -17   40.28    5.18
  -5  -5 -17   35.24    4.61
   5   6 -12  178.61   12.07
  -5  -6  12  202.73   13.29
  -5  -6  11   25.12    5.08
   5   6 -11   23.95    5.02
   5   6 -11   23.67    5.31
   5   6 -10  147.67   15.55
   5   6 -10  142.47   12.06
  -5  -6  10  128.35   14.12
   5   6 -10  140.72   12.92
   5   6  -9   22.53    5.94
  -5  -6   9    8.85    5.67
   5   6  -9   16.77    5.81
   5   6  -9   15.43    5.79
   5   6  -9   15.19    5.10
   5   6  -8  368.21   29.33
  -5  -6   8  371.21   30.73
   5   6  -8  427.76   30.79
   5   6  -8  467.30   46.65
   5   6  -8  377.07   25.85
   5   6  -7   40.16    9.92
  -5  -6   7   24.44    7.96
  -5  -6   7   37.75    7.65
   5   6  -7   23.62    8.66
   5   6  -7   25.81    6.78
   5   6  -6  198.61   22.53
  -5  -6   6  196.45   20.80
  -5  -6   6  227.61   29.36
   5   6  -6  194.56   20.25
  -5  -6   5   16.63    6.58
  -5  -6   5    8.25    4.42
   5   6  -5   15.43    3.65
   5   6  -5   11.12    6.87
   5   6  -5    4.73    4.85
  -5  -6   4  182.91   23.42
  -5  -6   4  151.37   19.28
   5   6  -4  191.48   20.56
  -5  -6   4  163.48   31.75
   5   6  -3  386.84   29.23
  -5  -6   3  417.82   31.97
  -5  -6   3  400.11   33.65
   5   6  -3  515.45   36.12
  -5  -6   3  405.33   33.11
  -5  -6   3  364.71   49.11
  -5  -6   2  814.90   51.93
   5   6  -2  975.68   53.63
  -5  -6   2  772.75   75.86
  -5  -6   1   69.69   14.92
  -5  -6   1  103.21   25.85
   5   6  -1   93.61   16.01
  -5  -6   0  439.58   56.90
  -5  -6   0  461.86   38.23
  -5  -6   0  371.34   23.40
  -5  -6   0  383.62   33.76
  -5  -6   0  521.31   48.11
  -5  -6  -1  602.46   45.32
  -5  -6  -1  541.85   65.37
  -5  -6  -1  579.52   42.07
  -5  -6  -1  648.13   52.56
  -5  -6  -2   11.06    5.70
  -5  -6  -2    4.47   11.16
  -5  -6  -2   24.20   10.14
  -5  -6  -2   18.29    8.43
  -5  -6  -3   16.01    8.40
  -5  -6  -3   14.23    8.43
  -5  -6  -4    1.97   10.61
  -5  -6  -4    0.81    6.24
  -5  -6  -4    6.44    7.26
  -5  -6  -4    4.22    4.85
  -5  -6  -5 1285.24   94.13
  -5  -6  -5 1278.05   64.17
  -5  -6  -5 1285.48   54.19
  -5  -6  -6  354.26   29.50
  -5  -6  -6  360.99   45.34
  -5  -6  -6  347.99   25.13
  -5  -6  -7  198.97   20.14
  -5  -6  -7  185.69   31.76
  -5  -6  -7  153.81   15.41
  -5  -6  -7  206.00   23.50
  -5  -6  -7  165.93   17.51
  -5  -6  -8   55.82   19.00
  -5  -6  -8   45.11    9.91
  -5  -6  -8   45.42    8.85
  -5  -6  -8   66.98   15.31
  -5  -6  -8   35.77    8.19
  -5  -6  -8   34.01    7.23
  -5  -6  -9  355.59   27.66
  -5  -6  -9  397.48   46.70
  -5  -6  -9  330.26   30.75
  -5  -6  -9  337.67   26.09
  -5  -6  -9  247.77   24.82
  -5  -6  -9  385.24   32.17
  -5  -6  -9  260.49   23.22
  -5  -6  -9  258.46   18.52
  -5  -6  -9  249.39   21.31
  -5  -6 -10   54.41    9.95
  -5  -6 -10   50.49   11.97
  -5  -6 -10   46.83    8.00
  -5  -6 -10   47.62    8.42
  -5  -6 -10   35.64    9.50
  -5  -6 -10   52.82   10.12
  -5  -6 -10   41.06    9.51
  -5  -6 -10   47.40    7.08
  -5  -6 -11   35.69    9.02
  -5  -6 -11   41.15    8.05
  -5  -6 -11   37.12    7.81
  -5  -6 -11   43.58   11.59
  -5  -6 -11   45.60    9.88
  -5  -6 -12  277.81   24.67
  -5  -6 -12  308.78   24.76
  -5  -6 -12  242.42   18.32
  -5  -6 -12  228.06   19.02
  -5  -6 -12  219.67   19.11
  -5  -6 -12  249.12   21.47
  -5  -6 -12  257.22   26.00
  -5  -6 -12  288.67   24.54
  -5  -6 -13  977.05   48.11
  -5  -6 -13  961.25   45.23
  -5  -6 -13  822.20   41.56
  -5  -6 -13  881.90   50.05
  -5  -6 -13  852.56   38.31
  -5  -6 -14   12.80    5.08
  -5  -6 -14    4.14    2.43
  -5  -6 -14    7.98    2.75
  -5  -6 -14   17.28    6.96
  -5  -6 -14    9.98    3.60
  -5  -6 -15    1.63    1.95
  -5  -6 -15    1.75    2.36
  -5  -6 -15    1.58    2.03
  -5  -6 -15    3.35    3.43
  -5  -6 -16    2.57    1.30
  -5  -6 -16    0.41    1.05
  -5  -6 -17   18.11    3.06
  -5  -6 -17    0.60    0.57
  -5  -7  12    1.48    1.74
   5   7 -12   -0.81    1.51
  -5  -7  11   18.30    4.08
   5   7 -11   15.70    4.26
  -5  -7  10   19.77    5.43
   5   7 -10   21.43    5.77
   5   7  -9  176.85   17.85
  -5  -7   9  156.68   17.29
   5   7  -9  158.11   14.05
   5   7  -8   29.59    6.37
  -5  -7   8   22.94    7.46
  -5  -7   8   26.12    5.78
   5   7  -8   33.22    7.92
   5   7  -8   34.20   11.84
   5   7  -8   26.33    6.18
   5   7  -7   15.66    7.44
  -5  -7   7    9.03    3.97
   5   7  -7   15.24    6.05
  -5  -7   7    6.12    2.11
   5   7  -7    6.50    2.10
  -5  -7   6  105.82   18.49
   5   7  -6  123.50   17.11
  -5  -7   6  132.70   16.89
   5   7  -6  125.39   14.98
   5   7  -5  243.56   24.73
  -5  -7   5  249.13   28.21
  -5  -7   5  257.95   26.32
   5   7  -5  259.87   22.56
   5   7  -5  255.08   33.85
  -5  -7   4   30.75    8.87
  -5  -7   4   21.55    7.27
   5   7  -4   33.00    8.75
  -5  -7   4   42.32   19.36
  -5  -7   3  109.85   18.82
  -5  -7   3  145.47   21.88
  -5  -7   3  150.11   34.21
  -5  -7   2   11.65    7.67
  -5  -7   2    1.48    7.85
  -5  -7   2   -2.66   20.18
  -5  -7   2    4.13    7.75
  -5  -7   1   -2.94    5.69
  -5  -7   1    0.91    3.62
  -5  -7   1   -8.03    9.90
  -5  -7   1   -2.10    9.12
  -5  -7   1    2.40    4.19
  -5  -7   1   -1.41   11.99
  -5  -7   0  757.50   56.08
  -5  -7   0  781.90   87.94
  -5  -7   0  644.26   37.19
  -5  -7   0  704.99   51.35
  -5  -7   0  795.42   62.73
  -5  -7  -1    2.95   12.34
  -5  -7  -1  -14.05   14.37
  -5  -7  -1   -0.96    8.85
  -5  -7  -1   -6.67    3.78
  -5  -7  -2  182.82   43.59
  -5  -7  -2  169.82   27.13
  -5  -7  -2  172.68   24.82
  -5  -7  -2  190.60   29.61
  -5  -7  -3  257.33   30.16
  -5  -7  -3  293.60   22.52
  -5  -7  -4   79.09   26.28
  -5  -7  -4  119.94   20.87
  -5  -7  -4  109.37   13.74
  -5  -7  -5  366.79   35.20
  -5  -7  -5  386.32   55.92
  -5  -7  -5  302.85   23.87
  -5  -7  -6   -2.16    6.79
  -5  -7  -6   -7.55    6.77
  -5  -7  -6    0.55    5.10
  -5  -7  -6   -0.87    3.33
  -5  -7  -6    2.99    5.30
  -5  -7  -6    3.88    3.28
  -5  -7  -6   -1.64    3.94
  -5  -7  -6    6.08    6.47
  -5  -7  -7   22.00    5.98
  -5  -7  -7   16.38   18.22
  -5  -7  -7   22.03    7.75
  -5  -7  -7   27.73    6.91
  -5  -7  -7   19.42    7.03
  -5  -7  -7   23.12    3.36
  -5  -7  -7   17.56    8.24
  -5  -7  -7   18.49    5.90
  -5  -7  -7   24.43    6.33
  -5  -7  -8  307.07   29.15
  -5  -7  -8  335.34   48.42
  -5  -7  -8  315.38   29.29
  -5  -7  -8  328.67   24.59
  -5  -7  -8  228.12   23.89
  -5  -7  -8  388.59   36.21
  -5  -7  -8  244.95   22.49
  -5  -7  -8  221.59   20.45
  -5  -7  -8  301.66   23.13
  -5  -7  -9   30.99   13.51
  -5  -7  -9   25.90    6.43
  -5  -7  -9   25.73    6.65
  -5  -7  -9   20.78    6.65
  -5  -7  -9   21.19    6.29
  -5  -7  -9   28.20    8.34
  -5  -7  -9   13.94    5.27
  -5  -7 -10  687.47   41.64
  -5  -7 -10  785.85   38.29
  -5  -7 -10  573.41   42.79
  -5  -7 -10  862.19   47.38
  -5  -7 -10  788.85   44.94
  -5  -7 -10  717.13   38.79
  -5  -7 -11   83.42   12.56
  -5  -7 -11   82.44   13.14
  -5  -7 -11   89.76   11.79
  -5  -7 -11  112.66   15.78
  -5  -7 -11   71.79   14.41
  -5  -7 -11   81.80   10.03
  -5  -7 -12   10.64    5.37
  -5  -7 -12    5.37    3.58
  -5  -7 -12    2.99    2.01
  -5  -7 -12   -0.45    1.72
  -5  -7 -12    1.52    4.10
  -5  -7 -12    7.13    4.91
  -5  -7 -13  115.27   14.87
  -5  -7 -13  121.05   13.33
  -5  -7 -13  108.11   12.94
  -5  -7 -13   94.19   15.01
  -5  -7 -13  123.67   15.00
  -5  -7 -13  106.05   12.48
  -5  -7 -13  104.53   10.98
  -5  -7 -14   -3.25    2.87
  -5  -7 -14    0.82    1.50
  -5  -7 -14    1.91    2.65
  -5  -7 -14   -0.70    3.50
  -5  -7 -14   -0.54    2.18
  -5  -7 -15  161.48   15.27
  -5  -7 -15  171.07   13.68
  -5  -7 -15  163.04   11.80
  -5  -7 -15  177.36   13.94
  -5  -7 -16   -0.30    1.00
  -5  -7 -16    7.84    3.36
  -5  -8  12   44.34    5.35
   5   8 -12   43.84    5.28
  -5  -8  11   39.01    5.97
   5   8 -11   38.42    5.68
  -5  -8  10   10.94    3.87
   5   8 -10   10.91    3.70
   5   8  -9  446.92   28.12
  -5  -8   9  468.01   26.46
  -5  -8   9  424.33   28.91
  -5  -8   8   41.03    9.72
  -5  -8   8   57.04    9.54
   5   8  -8   46.10    8.99
   5   8  -8   60.91   16.14
   5   8  -8   62.96    8.48
  -5  -8   7    1.10    4.82
  -5  -8   7    2.58    7.16
   5   8  -7    5.74    4.88
   5   8  -7   -2.82    2.72
   5   8  -6  201.06   22.26
  -5  -8   6  174.32   20.41
  -5  -8   6  137.51   20.75
   5   8  -5  755.80   45.59
  -5  -8   5  700.87   46.88
   5   8  -4    2.02    4.52
  -5  -8   4   -1.97    5.58
  -5  -8   3    4.98    4.27
  -5  -8   3    5.11   10.64
  -5  -8   3   -2.16    3.77
  -5  -8   2  310.39   26.15
  -5  -8   2  315.86   33.66
  -5  -8   2  245.29   27.26
  -5  -8   2  329.98   38.19
  -5  -8   2  382.59   69.20
  -5  -8   1  259.79   21.48
  -5  -8   1  250.85   25.83
  -5  -8   1  291.47   59.29
  -5  -8   1  286.48   34.98
  -5  -8   0  256.65   20.08
  -5  -8   0  273.52   24.43
  -5  -8   0  256.77   24.71
  -5  -8   0  285.96   43.21
  -5  -8   0  329.85   40.40
  -5  -8   0  276.38   61.00
  -5  -8  -1  125.43   13.19
  -5  -8  -1  122.63   14.60
  -5  -8  -1  148.94   16.95
  -5  -8  -1  145.25   31.90
  -5  -8  -1   79.14   35.45
  -5  -8  -1   94.81   22.98
  -5  -8  -2  560.54   31.82
  -5  -8  -2  681.35   59.70
  -5  -8  -2  711.49   98.57
  -5  -8  -2  607.17   35.53
  -5  -8  -2  625.70   69.11
  -5  -8  -3  563.91   33.47
  -5  -8  -4   52.93   22.62
  -5  -8  -4   69.29   19.14
  -5  -8  -4   42.29    9.53
  -5  -8  -4   54.72   17.98
  -5  -8  -4   49.69    9.70
  -5  -8  -5   48.16   14.03
  -5  -8  -5   50.35   28.07
  -5  -8  -5   40.09    9.14
  -5  -8  -5   41.76    7.90
  -5  -8  -5   36.13    8.87
  -5  -8  -5   40.70   10.20
  -5  -8  -6  571.49   46.72
  -5  -8  -6  647.82   79.25
  -5  -8  -6  576.09   36.86
  -5  -8  -6  521.43   28.83
  -5  -8  -6  430.09   32.35
  -5  -8  -6  617.37   46.52
  -5  -8  -6  509.60   31.29
  -5  -8  -6  406.50   30.92
  -5  -8  -7   21.67   14.44
  -5  -8  -7    2.91    5.96
  -5  -8  -7    2.67    4.14
  -5  -8  -7    3.60    4.59
  -5  -8  -7    6.39    3.70
  -5  -8  -7   -1.24    3.60
  -5  -8  -7   11.58    9.03
  -5  -8  -7    2.00    3.30
  -5  -8  -8  449.15   57.71
  -5  -8  -8  538.74   40.93
  -5  -8  -8  443.45   27.29
  -5  -8  -8  457.46   36.05
  -5  -8  -8  588.46   45.33
  -5  -8  -8  465.33   33.53
  -5  -8  -8  451.61   32.16
  -5  -8  -8  402.41   29.94
  -5  -8  -8  476.62   30.47
  -5  -8  -9  258.82   23.12
  -5  -8  -9  261.59   28.50
  -5  -8  -9  194.80   23.43
  -5  -8  -9  261.04   24.24
  -5  -8  -9  244.14   22.16
  -5  -8 -10  772.28   42.36
  -5  -8 -10  760.60   50.72
  -5  -8 -10  673.42   47.39
  -5  -8 -10  823.36   47.72
  -5  -8 -10  807.19   42.56
  -5  -8 -11   20.96    7.96
  -5  -8 -11   16.87    5.38
  -5  -8 -11   16.25    6.98
  -5  -8 -11   19.03    6.42
  -5  -8 -11   29.52    8.33
  -5  -8 -11   18.12    5.31
  -5  -8 -12  177.80   18.55
  -5  -8 -12  201.44   16.86
  -5  -8 -12  152.44   20.51
  -5  -8 -12  173.41   18.39
  -5  -8 -12  157.77   16.07
  -5  -8 -12  214.82   21.19
  -5  -8 -12  199.65   17.08
  -5  -8 -13    5.90    2.86
  -5  -8 -13   -0.29    2.05
  -5  -8 -13    0.41    1.66
  -5  -8 -13    9.82    4.85
  -5  -8 -13    3.86    3.23
  -5  -8 -13   -1.97    3.54
  -5  -8 -14   43.15    7.18
  -5  -8 -14   35.02    8.35
  -5  -8 -14   42.58    6.71
  -5  -8 -15  285.62   19.70
  -5  -8 -15  311.99   17.62
  -5  -8 -15  300.47   17.19
  -5  -8 -16    2.61    1.65
  -5  -8 -16  448.97   15.94
  -5  -9  11    7.89    2.51
   5   9 -11    0.31    0.38
   5   9 -11    7.57    2.21
  -5  -9  10    7.25    3.48
   5   9 -10    3.83    2.14
   5   9  -9  162.67   15.06
  -5  -9   9  173.03   14.48
  -5  -9   9  162.73   16.46
  -5  -9   8    2.62    4.20
  -5  -9   8    4.69    3.49
   5   9  -8    5.00    3.41
  -5  -9   7    3.03    3.81
   5   9  -7   -1.20    2.14
  -5  -9   7    3.17    3.63
   5   9  -6   42.55   10.57
  -5  -9   6   32.36    7.45
   5   9  -5  582.24   39.12
  -5  -9   5  512.60   40.09
  -5  -9   5  576.88   41.15
  -5  -9   5  559.38   56.27
  -5  -9   4   18.07    6.66
  -5  -9   4   11.93    7.45
   5   9  -4   27.68    8.82
  -5  -9   4   17.79    5.80
  -5  -9   4   18.96    7.99
  -5  -9   3   84.99   13.41
  -5  -9   3   80.18   14.20
  -5  -9   3   85.76   18.37
  -5  -9   2   92.78   14.80
  -5  -9   2  110.98   14.33
  -5  -9   2   97.37   17.64
  -5  -9   2  117.87   34.08
  -5  -9   1  284.07   23.00
  -5  -9   1  267.10   29.35
  -5  -9   1  294.39   25.31
  -5  -9   1  258.50   38.03
  -5  -9   1  288.40   64.63
  -5  -9   0  155.49   15.76
  -5  -9   0  161.11   19.59
  -5  -9   0  153.26   17.08
  -5  -9   0  166.63   33.52
  -5  -9   0  169.43   56.14
  -5  -9  -1  107.14   12.25
  -5  -9  -1  110.84   14.41
  -5  -9  -1  115.53   15.33
  -5  -9  -1  124.30   35.08
  -5  -9  -1  129.48   30.57
  -5  -9  -1  116.05   48.15
  -5  -9  -2  420.66   27.79
  -5  -9  -2  432.61   25.38
  -5  -9  -2  540.91   72.32
  -5  -9  -2  413.38   29.26
  -5  -9  -2  506.37   93.09
  -5  -9  -2  557.76   62.49
  -5  -9  -3  456.27   27.90
  -5  -9  -3  480.82   26.15
  -5  -9  -3  486.65   31.81
  -5  -9  -4  139.19   13.89
  -5  -9  -4  183.42   34.96
  -5  -9  -4  126.72   45.98
  -5  -9  -4  130.71   16.73
  -5  -9  -4  145.02   28.86
  -5  -9  -4  130.65   18.25
  -5  -9  -5   16.27    4.72
  -5  -9  -5   20.60   17.47
  -5  -9  -5   21.52    6.12
  -5  -9  -5    9.42    4.28
  -5  -9  -5   18.89    7.51
  -5  -9  -5   17.58    4.88
  -5  -9  -5   24.93    7.92
  -5  -9  -5   12.98    4.78
  -5  -9  -6  197.54   47.97
  -5  -9  -6  155.64   19.39
  -5  -9  -6  175.64   16.03
  -5  -9  -6  193.57   26.47
  -5  -9  -6  145.79   18.37
  -5  -9  -6  149.27   16.73
  -5  -9  -7  206.98   24.64
  -5  -9  -7  184.15   20.38
  -5  -9  -7  224.62   27.95
  -5  -9  -7  186.47   19.30
  -5  -9  -7  195.71   18.06
  -5  -9  -8  623.45   45.52
  -5  -9  -8  526.93   40.74
  -5  -9  -8  597.75   39.62
  -5  -9  -8  612.43   38.51
  -5  -9  -8  551.87   36.76
  -5  -9  -8  620.35   35.85
  -5  -9  -9  117.60   18.05
  -5  -9  -9  146.88   19.69
  -5  -9  -9  100.01   16.44
  -5  -9  -9  114.55   15.91
  -5  -9  -9  118.85   13.41
  -5  -9  -9  118.91   15.38
  -5  -9 -10  314.48   32.10
  -5  -9 -10  295.02   30.43
  -5  -9 -10  421.17   32.26
  -5  -9 -10  382.12   30.40
  -5  -9 -10  370.40   27.22
  -5  -9 -10  370.71   24.73
  -5  -9 -11    1.10    2.96
  -5  -9 -11    2.45    4.12
  -5  -9 -11    0.49    3.45
  -5  -9 -11   -2.89    2.63
  -5  -9 -11    3.87    3.55
  -5  -9 -11    9.85    4.21
  -5  -9 -12   28.07    7.07
  -5  -9 -12   26.83    6.40
  -5  -9 -12   29.51    8.76
  -5  -9 -12   37.68    7.38
  -5  -9 -12   32.18    7.49
  -5  -9 -12   30.65    6.50
  -5  -9 -13   44.17    7.53
  -5  -9 -13   41.29    7.35
  -5  -9 -13   36.73    8.94
  -5  -9 -13   37.97    6.88
  -5  -9 -13   42.16    8.19
  -5  -9 -13   37.25    5.99
  -5  -9 -14   20.24    4.63
  -5  -9 -14   14.52    4.77
  -5  -9 -14   14.58    3.71
  -5 -10  10   30.11    5.41
  -5 -10  10   28.17    4.17
   5  10 -10   23.56    4.20
  -5 -10   9    0.81    3.39
  -5 -10   9   -1.44    2.06
   5  10  -9   -0.31    1.69
   5  10  -8  102.62   12.17
  -5 -10   8   92.68   11.31
   5  10  -7   25.57    7.66
  -5 -10   7   24.56    5.88
  -5 -10   6   69.36   13.34
   5  10  -6  100.78   14.28
  -5 -10   6   73.24   12.15
  -5 -10   6   80.91   27.31
  -5 -10   5    0.77    5.10
  -5 -10   5    3.82    6.61
   5  10  -5    3.35    5.08
  -5 -10   5   11.09   11.03
  -5 -10   4    3.72    2.48
   5  10  -4    4.13    3.16
  -5 -10   4    3.79    3.65
  -5 -10   4   -4.15   10.07
  -5 -10   4   10.23    6.18
  -5 -10   3  189.87   20.35
  -5 -10   3  159.40   22.33
  -5 -10   3  159.88   31.72
  -5 -10   2   44.17    8.76
  -5 -10   2   54.16   17.49
  -5 -10   1    5.12    2.64
  -5 -10   1    7.53    6.81
  -5 -10   1    4.89   13.37
  -5 -10   1   12.78    6.66
  -5 -10   0  136.71   14.75
  -5 -10   0  150.55   19.07
  -5 -10   0  147.47   28.23
  -5 -10   0  109.77   14.66
  -5 -10   0  146.59   30.18
  -5 -10  -1   67.34   10.89
  -5 -10  -1   58.79    9.20
  -5 -10  -1   65.68   11.30
  -5 -10  -1   63.37   18.74
  -5 -10  -1   60.82   26.53
  -5 -10  -1   45.62   37.75
  -5 -10  -2   59.52    9.95
  -5 -10  -2   69.11    9.28
  -5 -10  -2   53.18   10.30
  -5 -10  -2   74.26   21.30
  -5 -10  -2   56.07   25.95
  -5 -10  -2   37.55   25.37
  -5 -10  -3   32.73    6.85
  -5 -10  -3   33.59    9.41
  -5 -10  -4    3.94    2.50
  -5 -10  -4    8.76   11.91
  -5 -10  -4   12.00    7.14
  -5 -10  -4    3.84    5.81
  -5 -10  -4    4.29    6.98
  -5 -10  -5  253.72   25.44
  -5 -10  -5  233.56   34.82
  -5 -10  -5  243.93   19.13
  -5 -10  -5  216.02   22.68
  -5 -10  -5  229.49   24.88
  -5 -10  -5  234.09   20.87
  -5 -10  -6   32.92   10.41
  -5 -10  -6   36.01    7.73
  -5 -10  -6   28.89    7.64
  -5 -10  -6   34.28   10.12
  -5 -10  -6   34.20   10.38
  -5 -10  -7  132.63   19.60
  -5 -10  -7  122.38   17.68
  -5 -10  -7  140.06   20.78
  -5 -10  -7  125.06   15.84
  -5 -10  -7  148.02   16.01
  -5 -10  -8  187.72   23.82
  -5 -10  -8  174.07   20.32
  -5 -10  -8  214.95   21.45
  -5 -10  -8  210.84   21.77
  -5 -10  -9  101.70   17.31
  -5 -10  -9  144.08   18.92
  -5 -10  -9  116.51   15.81
  -5 -10  -9  100.42   14.42
  -5 -10 -10   25.89    7.70
  -5 -10 -10   17.97    4.42
  -5 -10 -10   25.87    6.45
  -5 -10 -11   15.44    5.71
  -5 -10 -11   17.06    5.91
  -5 -10 -11   15.45    6.24
  -5 -10 -11   23.20    6.97
  -5 -10 -11    9.73    2.55
  -5 -10 -11   14.77    5.12
  -5 -10 -12   51.97    8.25
  -5 -10 -12   55.53    8.76
  -5 -10 -12   63.81    9.69
  -5 -10 -12   48.86    6.91
  -5 -10 -12   42.95    8.82
  -5 -10 -13  379.49   18.70
  -5 -10 -13  331.66   18.99
  -5 -10 -13  359.47   20.60
  -5 -10 -14    1.22    1.39
  -5 -10 -14   -0.47    0.99
   5  11  -9   31.38    4.68
  -5 -11   9   31.33    4.99
   5  11  -8  266.34   18.07
  -5 -11   8  268.85   18.26
  -5 -11   8  301.85   21.54
  -5 -11   7    2.14    2.16
  -5 -11   7    3.74    1.97
   5  11  -7    4.40    3.29
  -5 -11   6  100.69   14.06
   5  11  -6  111.00   14.64
  -5 -11   6  118.42   14.92
  -5 -11   5   71.82   12.18
  -5 -11   5   58.53   11.09
   5  11  -5   71.60   11.62
  -5 -11   5   75.99   12.11
   5  11  -4  126.70   16.81
  -5 -11   4  142.71   17.96
  -5 -11   4  122.86   19.20
  -5 -11   4  143.14   32.13
  -5 -11   4  103.82   16.52
  -5 -11   3  131.48   16.33
  -5 -11   3  108.46   27.07
  -5 -11   2  446.35   30.67
  -5 -11   2  468.56   55.58
  -5 -11   1  167.69   16.88
  -5 -11   1  175.88   21.74
  -5 -11   1  205.66   35.74
  -5 -11   0  350.30   23.97
  -5 -11   0  351.17   29.58
  -5 -11   0  382.70   47.63
  -5 -11   0  327.73   47.30
  -5 -11  -1  305.81   20.88
  -5 -11  -1  288.34   24.84
  -5 -11  -1  271.98   39.81
  -5 -11  -1  256.84   48.34
  -5 -11  -2   94.31   12.80
  -5 -11  -2   82.52   14.98
  -5 -11  -2   89.19   27.47
  -5 -11  -3   28.87    6.80
  -5 -11  -3   36.06   10.30
  -5 -11  -4   34.36    7.00
  -5 -11  -4   40.90   10.89
  -5 -11  -4   32.69   14.19
  -5 -11  -4   60.10   11.09
  -5 -11  -4   32.07   10.19
  -5 -11  -5  919.40   56.39
  -5 -11  -5  955.55   75.08
  -5 -11  -5  836.83   52.68
  -5 -11  -5  878.60   45.83
  -5 -11  -5  940.04   42.60
  -5 -11  -6  321.06   31.23
  -5 -11  -6  296.25   27.15
  -5 -11  -6  335.87   29.65
  -5 -11  -6  329.77   25.82
  -5 -11  -6  369.93   24.77
  -5 -11  -7   84.30   15.41
  -5 -11  -7   95.02   15.31
  -5 -11  -7   88.28   14.81
  -5 -11  -7   93.76   13.86
  -5 -11  -7   78.54   14.68
  -5 -11  -7   88.44   12.15
  -5 -11  -8    3.92    4.59
  -5 -11  -8    6.05    3.16
  -5 -11  -8    4.41    4.59
  -5 -11  -8    4.76    2.57
  -5 -11  -8    5.66    2.14
  -5 -11  -9  359.53   29.00
  -5 -11  -9  334.51   26.06
  -5 -11  -9  300.64   24.87
  -5 -11 -10    5.07    1.93
  -5 -11 -10    5.49    3.74
  -5 -11 -10    9.43    4.09
  -5 -11 -10   -0.52    3.81
  -5 -11 -11   30.49    5.90
  -5 -11 -11   44.98    8.11
  -5 -11 -11   39.85    8.80
  -5 -11 -11   31.94    7.34
  -5 -11 -12  249.13   17.73
  -5 -11 -12  214.98   15.12
  -5 -11 -12  202.13   15.97
  -5 -11 -13    0.14    0.36
  -5 -11 -13  513.17   20.58
  -5 -12   8  131.08   10.56
  -5 -12   8  137.77   11.91
   5  12  -7    2.09    2.35
  -5 -12   7    3.95    3.48
  -5 -12   7    1.67    2.76
   5  12  -7    4.74    3.29
   5  12  -6   30.04    5.56
  -5 -12   6   34.11    7.80
  -5 -12   6   49.59    8.23
   5  12  -6   41.08    7.31
  -5 -12   5    2.73    2.92
  -5 -12   5    3.52    4.27
   5  12  -5    8.00    3.99
  -5 -12   5   13.55    4.31
   5  12  -4  112.93   14.88
  -5 -12   4   89.91   14.48
  -5 -12   4  128.76   15.67
  -5 -12   4  102.60   16.36
  -5 -12   3   69.69   11.34
   5  12  -3   66.99   11.37
  -5 -12   3   54.20   12.49
  -5 -12   2  283.01   22.19
  -5 -12   2  251.89   26.05
  -5 -12   2  312.84   44.98
  -5 -12   2  248.80   31.26
  -5 -12   1  226.26   18.53
  -5 -12   1  219.00   23.27
  -5 -12   0  199.22   16.24
  -5 -12   0  196.07   20.71
  -5 -12   0  194.69   33.70
  -5 -12  -1  219.57   20.63
  -5 -12  -1  219.58   39.67
  -5 -12  -1  226.17   30.57
  -5 -12  -2   49.34    8.67
  -5 -12  -2   32.68   17.79
  -5 -12  -2   31.63   12.43
  -5 -12  -3    7.37    3.88
  -5 -12  -3   10.90    4.07
  -5 -12  -4   14.28    4.43
  -5 -12  -4   11.16    6.79
  -5 -12  -4   26.53    6.27
  -5 -12  -4   10.23    4.91
  -5 -12  -4   28.57    8.73
  -5 -12  -5  950.93   55.34
  -5 -12  -5  943.58   46.68
  -5 -12  -5  909.34   41.04
  -5 -12  -6  111.27   17.39
  -5 -12  -6  103.14   15.89
  -5 -12  -6  117.37   15.04
  -5 -12  -6  119.34   13.17
  -5 -12  -7   35.05    7.31
  -5 -12  -7   44.71    9.32
  -5 -12  -7   35.81    8.77
  -5 -12  -7   32.12    8.15
  -5 -12  -8    2.88    2.94
  -5 -12  -8    6.04    3.86
  -5 -12  -8    8.67    3.93
  -5 -12  -9   72.99    9.33
  -5 -12  -9   76.21   11.09
  -5 -12  -9   92.99   12.73
  -5 -12  -9   80.08   11.73
  -5 -12 -10   68.85    9.81
  -5 -12 -10   65.91    9.76
  -5 -12 -10   59.00    9.13
  -5 -12 -11   39.37    6.72
  -5 -12 -11   36.92    6.53
  -5 -12 -11   41.45    7.13
  -5 -12 -12   95.53    8.99
  -5 -13   7    0.23    1.40
  -5 -13   7    0.96    1.05
   5  13  -7   -1.04    1.69
  -5 -13   6   -1.55    2.74
  -5 -13   6    2.82    2.70
   5  13  -6    2.20    2.05
   5  13  -5   61.59    8.79
  -5 -13   5   59.22    9.18
  -5 -13   5   74.29    9.77
  -5 -13   5   56.08    9.07
   5  13  -4   42.12    8.02
  -5 -13   4   35.33    6.27
  -5 -13   4   38.77    9.51
  -5 -13   3    8.26    4.53
  -5 -13   3   12.42    5.28
   5  13  -3    7.06    2.69
  -5 -13   3   20.45    9.63
  -5 -13   2    9.89    3.99
  -5 -13   2   12.99    7.26
  -5 -13   2   11.26    5.31
  -5 -13   1    6.00    3.84
  -5 -13   1    1.05    6.74
  -5 -13   0   75.76   11.75
  -5 -13   0   59.77   13.60
  -5 -13  -1    2.84    2.34
  -5 -13  -1    2.48    2.47
  -5 -13  -1    5.70    7.96
  -5 -13  -2   65.52    9.60
  -5 -13  -2   54.31    7.63
  -5 -13  -3   56.81    8.14
  -5 -13  -3   50.40    9.03
  -5 -13  -4    3.03    2.15
  -5 -13  -4    2.56    3.85
  -5 -13  -5  101.70   16.05
  -5 -13  -5   92.72   12.32
  -5 -13  -5   98.59   15.55
  -5 -13  -6   42.79    8.47
  -5 -13  -6   32.72    7.21
  -5 -13  -6   42.33    9.49
  -5 -13  -7    8.26    4.03
  -5 -13  -7    7.29    3.62
  -5 -13  -7    8.75    3.47
  -5 -13  -8   57.06    8.57
  -5 -13  -8   76.73   10.78
  -5 -13  -8   56.57    9.18
  -5 -13  -9    7.73    3.89
  -5 -13  -9   13.18    4.12
  -5 -13  -9    3.90    2.86
  -5 -13 -10  142.56   12.40
  -5 -13 -10  131.65   12.47
  -5 -13 -11    9.16    2.74
  -5 -13 -11   13.70    3.96
   5  14  -5  230.95   13.80
  -5 -14   4   15.30    4.87
   5  14  -4   12.71    3.31
  -5 -14   4   14.34    3.67
  -5 -14   3   15.23    4.40
   5  14  -3   20.12    4.95
  -5 -14   3   25.64    7.08
   5  14  -2  104.06   11.57
  -5 -14   2  102.08   12.30
  -5 -14   2  106.99   15.40
  -5 -14   1  167.94   16.64
  -5 -14   1  113.97   19.00
  -5 -14   0   34.16    6.96
  -5 -14   0   18.76    8.10
  -5 -14  -1   63.99    9.00
  -5 -14  -1   65.21   14.81
  -5 -14  -2  583.37   33.80
  -5 -14  -3  214.32   24.45
  -5 -14  -3  201.72   18.09
  -5 -14  -4   20.63    5.74
  -5 -14  -4   25.92    8.18
  -5 -14  -5    2.96    2.88
  -5 -14  -5    4.37    2.36
  -5 -14  -5   -2.41    3.09
  -5 -14  -6  144.13   14.27
  -5 -14  -6  160.47   16.02
  -5 -14  -6  126.49   14.69
  -5 -14  -7   20.08    4.79
  -5 -14  -7   14.61    4.48
  -5 -14  -8  235.00   17.85
  -5 -14  -8  297.24   19.13
  -5 -14  -9  123.01   10.66
  -5 -14  -9  116.82   11.14
  -5 -15   2   38.42    5.74
   5  15  -2   39.18    5.48
  -5 -15   2   53.19    9.14
  -5 -15   2   54.94    7.57
   5  15  -1  116.25   10.75
  -5 -15   1  121.97   10.99
  -5 -15   1  146.83   17.81
  -5 -15   1  136.14   13.00
  -5 -15   0   34.40    6.76
  -5 -15   0   19.06    7.14
  -5 -15  -1   17.27    4.32
  -5 -15  -1   29.41   10.97
  -5 -15  -2  324.23   21.99
  -5 -15  -3   61.19    8.62
  -5 -15  -3   66.63   12.57
  -5 -15  -4   40.77    7.39
  -5 -15  -4   35.68    8.08
  -5 -15  -5    4.70    2.95
  -5 -15  -5    5.99    3.62
  -5 -15  -6   44.65    6.86
   6 -10  -1   97.04   15.88
   6 -10  -1   98.43   10.60
  -6  10   0   15.68    3.18
   6 -10   0   14.68    5.80
   6 -10   0   15.98    7.92
   6 -10   0   10.95    3.07
  -6  10  -1   21.50    6.25
   6 -10   1   20.12    7.86
   6 -10   1   12.04    4.95
   6 -10   1   21.18    5.42
   6 -10   2  213.73   21.18
  -6  10  -2  205.18   19.72
   6 -10   2  216.99   16.83
   6 -10   3    5.76    5.35
  -6  10  -4   17.82    5.26
   6 -10   4   16.23    6.07
  -6  10  -5   15.93    4.60
   6 -10   5   21.16    6.08
   6 -10   6    0.30    0.84
   6 -10   6  234.91   18.82
   6  -9  -4    5.84    4.78
   6  -9  -4   15.00    5.85
   6  -9  -3    5.80    4.82
   6  -9  -3    7.23    3.70
  -6   9   2  368.64   27.04
   6  -9  -2  285.35   21.49
   6  -9  -2  378.31   37.79
   6  -9  -2  342.49   31.18
   6  -9  -2  261.97   18.72
   6  -9  -1   95.62   21.61
  -6   9   1   85.58   15.66
   6  -9  -1  106.84   21.69
   6  -9  -1  115.86   24.24
   6  -9   0   20.48   13.13
  -6   9   0   28.76    7.99
   6  -9   0   20.68    6.08
   6  -9   0   42.93   14.73
   6  -9   0   27.80    5.92
  -6   9  -1    9.67    6.16
   6  -9   1    5.89    9.11
   6  -9   1   11.80   14.17
   6  -9   1   -1.72    3.94
   6  -9   2  383.52   36.42
  -6   9  -2  294.04   29.40
   6  -9   2  312.70   23.16
   6  -9   3  147.45   42.87
   6  -9   3   51.81   13.50
   6  -9   3  186.79   40.22
   6  -9   4   -4.63   15.76
   6  -9   4    4.52    5.10
  -6   9  -4   -4.48    6.31
   6  -9   4   -2.59    5.66
   6  -9   5   16.56    5.12
   6  -9   5   25.44   11.59
  -6   9  -5   11.26    4.89
   6  -9   6  371.19   29.10
   6  -9   6  417.75   41.13
   6  -9   6  442.93   38.81
  -6   9  -6  334.39   23.97
   6  -9   7   29.09   10.57
  -6   9  -7    9.97    4.46
   6  -9   8   44.73    9.45
   6  -9   8   37.34    8.57
   6  -9   9  127.44   13.19
   6  -9   9  115.23   13.28
   6  -8  -6    6.75    3.52
   6  -8  -5    0.82    1.12
   6  -8  -5    7.59    5.95
   6  -8  -5   12.88    5.63
   6  -8  -4   23.97    7.02
   6  -8  -4   18.78    7.71
   6  -8  -4   11.87    6.70
   6  -8  -4   14.16    4.35
   6  -8  -3   16.37    7.29
  -6   8   3   25.08    7.44
   6  -8  -3   14.56    5.19
   6  -8  -3   21.63    9.31
   6  -8  -3   14.85    4.43
   6  -8  -2  134.50   23.53
  -6   8   2  158.67   19.70
   6  -8  -2  143.36   23.46
   6  -8  -2  169.44   16.19
   6  -8  -1   31.24   21.12
  -6   8   1   11.88   10.03
   6  -8  -1   43.75   21.62
   6  -8  -1   34.88    8.94
   6  -8   0    3.15   21.61
  -6   8   0    8.80    6.81
   6  -8   0   10.12    5.47
   6  -8   1  149.51   52.43
  -6   8  -1   46.98   14.00
  -6   8  -2   42.23   12.78
   6  -8   3  143.88   68.52
   6  -8   3   16.04   11.02
  -6   8  -4   -0.94    4.96
   6  -8   4    4.75    6.35
  -6   8  -5   16.27    7.08
   6  -8   5   48.02   27.65
  -6   8  -6  170.19   19.12
   6  -8   6  215.29   36.57
   6  -8   7   17.95   10.92
  -6   8  -7   18.88    6.56
   6  -8   8    0.83    3.78
  -6   8  -8    0.77    1.84
  -6   8  -8   -0.91    2.00
  -6   8  -9    1.09    1.68
   6  -8   9    6.70    5.86
  -6   8 -10  115.20    9.97
   6  -8  11    1.56    1.84
   6  -7  -7   54.42    9.07
   6  -7  -7   56.77    8.58
   6  -7  -6   47.85    8.60
   6  -7  -6   43.23   10.20
   6  -7  -5  219.41   21.77
   6  -7  -4  145.47   19.83
   6  -7  -4  205.79   21.99
   6  -7  -4  135.09   21.52
   6  -7  -4  187.82   16.73
   6  -7  -3   10.05    7.22
  -6   7   3   17.55    7.26
   6  -7  -3   21.20   10.54
   6  -7  -3   22.23    5.46
   6  -7  -2   39.06   21.42
  -6   7   2   14.82    8.94
   6  -7  -2   24.53    7.44
   6  -7  -1  157.61   44.93
  -6   7   1  116.82   19.91
   6  -7  -1  129.08   14.97
  -6   7   0   20.88   13.87
  -6   7   0    3.13   12.05
   6  -7   1  552.67  236.74
  -6   7  -1  323.67   61.95
   6  -7   1  608.28  145.84
  -6   7  -2   74.58   37.26
   6  -7   3  715.21  273.40
   6  -7   3  615.28  148.59
   6  -7   4   76.46   53.69
  -6   7  -4  -13.58    9.38
   6  -7   4  119.51   69.86
   6  -7   5  228.19   84.99
   6  -7   5  221.94   26.24
  -6   7  -5  236.66   46.02
  -6   7  -5  256.58   29.51
   6  -7   5  294.58   63.02
  -6   7  -6    7.68    7.40
  -6   7  -6    8.82    6.33
   6  -7   6   15.76   15.62
  -6   7  -7  170.57   19.86
   6  -7   7  145.89   31.47
  -6   7  -7  187.79   17.35
  -6   7  -8   21.52    6.62
   6  -7   8   28.28   11.48
  -6   7  -8   28.27    7.24
   6  -7   9  164.38   22.39
  -6   7  -9  167.06   16.02
  -6   7  -9  194.75   17.78
  -6   7 -10    6.40    5.16
  -6   7 -11   29.67    5.59
   6  -7  11   51.38   12.08
  -6   7 -12  123.82   10.20
   6  -7  12  105.60   12.24
   6  -7  12  109.78   13.37
   6  -6  -9   32.34    4.08
   6  -6  -8  178.72   11.44
   6  -6  -8  197.13   15.05
   6  -6  -7   84.59    9.53
   6  -6  -7  106.76   14.45
   6  -6  -7   96.32   13.86
   6  -6  -6   58.75   12.04
   6  -6  -6   49.80   11.39
   6  -6  -5  385.46   31.57
   6  -6  -4  297.59   35.18
  -6   6   4  365.98   30.54
   6  -6  -4  404.16   32.56
   6  -6  -4  352.65   24.75
   6  -6  -3   39.56   18.75
   6  -6  -3   16.15   13.08
  -6   6   3   24.11    8.60
   6  -6  -3   45.90   38.76
   6  -6  -3   11.49    5.40
   6  -6  -2   59.25   28.86
   6  -6  -2   54.22   22.97
  -6   6   2   33.49   11.67
   6  -6  -2   84.48   69.94
  -6   6   2   45.88   25.66
   6  -6  -2   39.27   10.67
   6  -6  -1  198.20   53.84
   6  -6  -1  270.94   39.29
   6  -6  -1  370.17  110.10
  -6   6   1  209.68   44.82
  -6   6   1  244.98   29.54
   6  -6  -1  248.74   21.60
  -6   6   0   76.77   39.64
   6  -6   0  117.89   64.61
  -6   6  -1  495.29   82.34
   6  -6   1  683.24  274.16
   6  -6   1  919.73  180.11
  -6   6  -2   84.67   48.62
   6  -6   3  744.50  294.60
   6  -6   3  671.50  157.22
   6  -6   4  113.67   83.67
  -6   6  -4   42.20   34.28
   6  -6   4  203.32   90.42
   6  -6   5  324.74  128.66
  -6   6  -5  297.80   57.06
  -6   6  -5  411.38   26.93
   6  -6   5  395.88   80.49
   6  -6   6   81.57   67.16
  -6   6  -6  105.38   33.05
  -6   6  -6   96.41   19.28
   6  -6   6  114.54   46.27
  -6   6  -6  129.66   16.99
  -6   6  -7  191.46   36.05
  -6   6  -7  194.94   21.94
   6  -6   7  194.41   41.69
  -6   6  -7  244.29   22.02
  -6   6  -8   30.70    7.75
  -6   6  -8   42.67   14.13
  -6   6  -8   37.19    9.61
   6  -6   8   14.16    9.02
   6  -6   9  414.19   43.89
  -6   6  -9  514.52   34.67
  -6   6  -9  482.81   31.41
  -6   6 -10   30.12   10.10
  -6   6 -10   44.02    8.18
  -6   6 -11   63.43    9.91
  -6   6 -12  317.51   20.04
  -6   6 -13  289.75   16.08
   6  -6  13  254.69   19.07
   6  -6  13  278.64   21.60
   6  -5  -9   18.40    3.88
   6  -5  -9   12.42    3.16
   6  -5  -8   10.20    4.19
   6  -5  -8    4.70    1.99
   6  -5  -7  127.56   13.09
   6  -5  -7  127.26   16.95
   6  -5  -7  134.17   17.43
   6  -5  -6    5.12    4.08
   6  -5  -6   12.08    6.01
   6  -5  -6    7.10    8.17
   6  -5  -5  119.11   14.25
   6  -5  -5  111.89   24.91
   6  -5  -5  116.08   17.79
   6  -5  -5   85.93   19.72
   6  -5  -4  140.15   30.05
   6  -5  -4  218.50   35.87
  -6   5   4  214.51   23.52
   6  -5  -4  256.28   26.93
   6  -5  -4  231.74   19.53
   6  -5  -3  -11.27   15.59
   6  -5  -3   11.92    9.41
  -6   5   3   11.43    6.59
   6  -5  -3   27.96   30.92
  -6   5   3   10.07   12.48
   6  -5  -3   14.17    5.83
   6  -5  -2  115.07   38.35
   6  -5  -2  192.61   33.09
   6  -5  -2  234.33   87.86
  -6   5   2  166.05   36.36
  -6   5   2  144.10   21.02
   6  -5  -2  152.73   16.09
   6  -5  -1    9.19   32.01
  -6   5   1   12.91    9.34
  -6   5   1   18.39   12.61
   6  -5   0   47.09   45.35
  -6   5   0   29.04   16.61
   6  -5   1  301.71  102.21
  -6   5  -1  271.15   61.76
  -6   5  -2   36.57   32.74
   6  -5   3  439.77  125.61
  -6   5  -4   52.01   11.69
  -6   5  -4   40.25   33.84
   6  -5   5   69.91   43.18
  -6   5  -5   72.01   11.52
  -6   5  -5   73.37   28.62
   6  -5   6   42.41   30.37
  -6   5  -6   64.23   11.79
  -6   5  -6   51.90   15.66
  -6   5  -6   69.02   25.87
   6  -5   7  149.64   42.75
  -6   5  -7  165.04   20.67
   6  -5   7  164.63   73.59
  -6   5  -7  147.35   32.46
  -6   5  -7  132.29   20.29
  -6   5  -8   47.00   10.46
   6  -5   8   28.52   14.62
  -6   5  -8   54.58   11.63
   6  -5   8   51.93   18.69
   6  -5   8   65.86   37.70
  -6   5  -8   50.00   17.51
   6  -5   9  164.24   29.97
  -6   5  -9  245.45   25.84
  -6   5  -9  187.65   19.69
   6  -5   9  292.93   49.31
  -6   5 -10   35.98   11.28
  -6   5 -11   78.31   11.98
  -6   5 -11   60.56    9.36
  -6   5 -12   66.91   10.22
  -6   5 -12   66.29    8.21
  -6   5 -13   57.35    7.79
   6  -5  13   64.49   11.61
  -6   5 -13   59.69    6.47
   6  -5  14    6.70    2.29
   6  -5  14    6.58    3.42
   6  -4 -10   98.98    9.29
   6  -4  -9  164.35   13.63
   6  -4  -9  161.28   13.61
   6  -4  -8  103.58   12.86
   6  -4  -8  109.98   11.80
   6  -4  -8  104.70   13.93
   6  -4  -7  220.38   18.37
   6  -4  -7  250.44   21.63
   6  -4  -7  162.05   20.07
   6  -4  -7  195.82   23.29
   6  -4  -7  170.98   20.81
   6  -4  -6   74.84   13.73
   6  -4  -6   75.67   11.36
   6  -4  -6   68.67   13.87
   6  -4  -6   38.91   12.41
   6  -4  -5  181.31   23.94
   6  -4  -5  173.54   19.31
   6  -4  -5  223.58   36.26
   6  -4  -4   24.07   10.62
   6  -4  -4   15.42    7.64
   6  -4  -4   52.66   20.67
   6  -4  -4    7.32   16.06
  -6   4   4    2.80    7.28
   6  -4  -4   37.27   12.59
   6  -4  -3    8.06    4.51
   6  -4  -3    7.58   15.13
   6  -4  -3    7.58    6.50
  -6   4   3   12.70    6.33
  -6   4   3   11.76   11.15
   6  -4  -3   15.50    5.45
   6  -4  -2  434.71   72.83
  -6   4   2  553.14   63.31
  -6   4   2  520.35   39.95
   6  -4  -2  582.17   31.84
  -6   4   1  269.95   51.53
   6  -4  -1  183.86   60.70
  -6   4   0   24.14   13.37
   6  -4   0   38.54   18.16
  -6   4  -1   -3.86   12.70
   6  -4   1   45.35   33.40
  -6   4  -2  691.76  107.01
   6  -4   3  129.70   66.82
  -6   4  -4   51.92   24.81
   6  -4   4   61.11   40.16
  -6   4  -4   41.59    7.55
  -6   4  -5    3.20    5.96
   6  -4   5   -4.31   24.97
  -6   4  -5    3.14    3.63
   6  -4   6  692.61   95.04
  -6   4  -6  894.47   49.09
  -6   4  -6  875.43   90.33
  -6   4  -6  898.94   58.75
   6  -4   7  102.74   48.15
   6  -4   7  175.61   33.56
  -6   4  -7   94.12   28.05
  -6   4  -7   88.59   19.10
   6  -4   8    9.95    9.93
  -6   4  -8   16.15    9.11
  -6   4  -8    8.33    4.47
   6  -4   8   15.69   10.73
  -6   4  -8    1.82    5.83
  -6   4  -9  165.01   22.37
  -6   4  -9  133.09   16.43
  -6   4  -9  170.63   29.47
   6  -4   9  166.62   35.62
  -6   4 -10  684.02   46.69
   6  -4  10  628.29   74.86
  -6   4 -11   39.70   10.46
  -6   4 -12   26.28    8.56
  -6   4 -12   32.05    7.51
  -6   4 -13   46.21    7.19
  -6   4 -14   73.65    8.37
   6  -4  14   71.70   10.64
  -6   4 -14   78.50    7.90
  -6   4 -15  154.04   10.50
  -6   4 -15  154.17   10.51
   6  -4  15  139.92   10.70
   6  -4  15  127.80   10.21
   6  -3 -11   47.01    6.18
   6  -3 -10    0.19    0.65
   6  -3 -10  176.54   13.14
   6  -3  -9  336.88   21.36
   6  -3  -9  379.74   23.63
   6  -3  -9  381.75   25.22
   6  -3  -9  372.61   23.21
   6  -3  -9  335.47   21.34
   6  -3  -8  258.57   22.00
   6  -3  -8  203.86   21.33
   6  -3  -8  246.70   21.87
   6  -3  -8  228.08   19.11
   6  -3  -8  234.55   21.34
   6  -3  -7  418.06   31.63
   6  -3  -7  401.55   27.19
   6  -3  -7  292.64   30.02
   6  -3  -7  385.72   34.57
   6  -3  -7  296.94   29.99
   6  -3  -6   78.49   14.85
   6  -3  -6   82.74   12.58
   6  -3  -6   73.42   19.81
   6  -3  -6   88.96   16.99
   6  -3  -6   87.07   17.36
   6  -3  -5  114.93   20.60
   6  -3  -5   75.13   14.70
   6  -3  -4    7.82    9.66
   6  -3  -4   10.51    4.80
  -6   3   4   22.30    9.35
   6  -3  -4   34.86   14.86
   6  -3  -4   12.03    7.89
   6  -3  -3   11.16    5.20
   6  -3  -3   -2.13    5.41
  -6   3   3    2.89    2.45
  -6   3   3    5.61    7.68
   6  -3  -3   -2.38   12.52
   6  -3  -3    7.92    4.59
   6  -3  -2  973.65   52.99
   6  -3  -2  963.24   90.72
  -6   3   2 1004.19   85.80
  -6   3   2  990.63   56.49
   6  -3  -1  837.14   91.62
  -6   3   1  919.54   90.12
  -6   3   1  892.43   58.94
  -6   3   0  321.74   54.28
  -6   3   0  281.94   32.79
   6  -3   0  239.92   51.11
  -6   3  -1   29.70   16.70
   6  -3   1   46.94   23.04
  -6   3  -2  376.24   66.87
   6  -3   3  113.08   43.37
  -6   3  -4   33.70   18.50
   6  -3   4   67.29   30.08
  -6   3  -4   48.94    8.58
  -6   3  -5  150.40   39.87
  -6   3  -5  150.84   25.51
   6  -3   5  170.78   41.24
  -6   3  -5  163.55   18.23
   6  -3   6 1655.74  129.00
   6  -3   6 2008.94  105.78
  -6   3  -6 1999.34  139.63
  -6   3  -6 2011.07   93.79
  -6   3  -6 1848.91   78.62
  -6   3  -7  168.51   40.70
   6  -3   7  185.30   46.36
  -6   3  -8    7.55    5.71
   6  -3   8    8.65    7.68
  -6   3  -8    3.56    7.30
   6  -3   8  -11.96   14.31
  -6   3  -8   19.59   11.00
  -6   3  -9  116.23   15.26
   6  -3   9  123.56   29.77
  -6   3  -9  108.18   23.78
  -6   3  -9  139.04   21.87
   6  -3  10  740.13   79.46
  -6   3 -10  608.99   44.28
  -6   3 -11   96.38   11.59
  -6   3 -12  201.15   19.74
  -6   3 -13  151.77   15.78
  -6   3 -13  165.54   15.72
  -6   3 -14  191.92   15.51
   6  -3  14  191.67   19.13
  -6   3 -14  214.49   15.45
  -6   3 -15  187.96   12.67
  -6   3 -15  183.39   12.74
   6  -3  15  158.15   12.86
  -6   3 -15  164.83   11.39
  -6   3 -16   87.06    7.03
  -6   3 -16   83.54    6.68
   6  -2 -11    6.04    2.22
   6  -2 -11    3.99    3.05
   6  -2 -10   65.75    8.38
   6  -2 -10   75.31    8.99
   6  -2 -10   87.00   10.77
   6  -2 -10   82.36   10.07
   6  -2  -9   89.19   11.73
   6  -2  -9   90.52   12.65
   6  -2  -9   96.03   12.61
   6  -2  -9   81.67   10.69
   6  -2  -9   88.82   10.45
   6  -2  -8   12.73    6.65
   6  -2  -8   13.68    6.71
   6  -2  -8   13.14    5.23
   6  -2  -8   13.54    5.88
   6  -2  -8    1.60    2.00
   6  -2  -7  310.88   26.30
   6  -2  -7  307.66   25.09
   6  -2  -7  185.83   24.93
   6  -2  -7  274.90   30.11
   6  -2  -7  178.09   22.30
   6  -2  -6   41.86   10.54
   6  -2  -6   54.35   11.48
   6  -2  -6   52.02   14.86
   6  -2  -6   60.02   14.49
   6  -2  -6   35.47   11.55
   6  -2  -5   92.13   14.62
   6  -2  -5   77.56   15.63
   6  -2  -5  119.22   23.21
   6  -2  -4    3.92    5.31
   6  -2  -4   -0.77    3.51
  -6   2   4   -1.63   11.79
   6  -2  -4    6.68    9.14
   6  -2  -3  111.29   17.40
   6  -2  -3  195.17   24.53
  -6   2   3  131.59   18.34
  -6   2   3  113.84   27.66
   6  -2  -3  138.23   23.81
   6  -2  -3  115.97   24.98
   6  -2  -2  205.03   23.13
   6  -2  -2  290.27   30.72
  -6   2   2  198.79   35.80
  -6   2   2  263.40   26.93
   6  -2  -2  240.75   36.63
   6  -2  -1  121.02   16.25
  -6   2   1  145.05   34.80
  -6   2   1  133.28   21.30
   6  -2  -1   75.94   21.13
  -6   2   0   16.16    4.90
  -6   2   0    5.57    9.44
   6  -2   0   23.69   14.05
  -6   2  -1  111.62   21.58
  -6   2  -1  118.97   34.84
   6  -2   1  124.98   43.34
   6  -2   1  130.93   33.15
  -6   2  -2  228.56   51.16
  -6   2  -2  205.12   29.63
   6  -2   3   57.14   19.92
   6  -2   3  160.22   51.83
  -6   2  -4    6.79   10.30
  -6   2  -4   20.59   20.01
   6  -2   4   33.07   23.88
   6  -2   4   48.11   32.89
  -6   2  -4   21.44    5.77
  -6   2  -5    4.06    8.80
   6  -2   5    5.84    5.44
  -6   2  -5   -2.64   12.60
   6  -2   5  -13.96   19.63
   6  -2   5   -4.29   28.12
  -6   2  -5   12.10    5.33
   6  -2   6  285.88   33.10
  -6   2  -6  290.96   48.79
  -6   2  -6  271.60   28.46
  -6   2  -6  306.89   31.36
   6  -2   6  294.42   60.80
   6  -2   6  274.43   39.89
  -6   2  -6  279.96   24.51
   6  -2   7  215.95   30.75
  -6   2  -7  175.76   36.66
  -6   2  -7  169.28   22.59
   6  -2   7  162.37   31.60
   6  -2   7  248.72   56.67
  -6   2  -7  222.13   24.46
   6  -2   8   63.55   17.49
  -6   2  -8   57.14   11.88
  -6   2  -8   64.89   18.21
   6  -2   8   68.19   19.67
  -6   2  -8   89.28   19.13
  -6   2  -9    5.09    2.47
   6  -2   9   13.40    8.71
  -6   2  -9    2.79    3.22
  -6   2  -9    1.43    5.13
  -6   2  -9    0.95    7.41
  -6   2 -10  351.32   26.70
   6  -2  10  337.85   52.48
  -6   2 -11   51.52    9.34
  -6   2 -11   50.07    9.43
  -6   2 -12   35.49    9.32
  -6   2 -12   25.09    6.96
  -6   2 -12   49.34    9.46
  -6   2 -12   49.05   10.10
  -6   2 -13    1.33    2.50
  -6   2 -13   -0.72    1.43
  -6   2 -13   -0.32    1.92
  -6   2 -13   -1.80    2.24
  -6   2 -14   44.31    7.92
   6  -2  14   34.35    9.15
  -6   2 -14   42.94    7.83
  -6   2 -15  123.69   10.88
  -6   2 -15  112.25   10.32
  -6   2 -15  105.51   10.08
  -6   2 -16   12.20    2.72
  -6   2 -16   14.67    3.21
   6  -1 -11   51.72    6.73
   6  -1 -11   65.01    8.01
   6  -1 -10   60.96    9.18
   6  -1 -10   62.54    9.37
   6  -1 -10   56.23    8.39
   6  -1  -9   14.17    5.32
   6  -1  -9    8.15    5.87
   6  -1  -9   11.16    5.44
   6  -1  -9    6.86    3.63
   6  -1  -8   60.71   14.42
   6  -1  -8   59.04   14.26
   6  -1  -8   78.06   12.92
   6  -1  -8   80.69   13.21
   6  -1  -8   66.47   11.49
   6  -1  -7  196.68   21.39
   6  -1  -7  203.67   21.63
   6  -1  -7  154.96   23.93
   6  -1  -7  227.13   29.05
   6  -1  -7  157.73   20.33
   6  -1  -6   95.87   15.41
   6  -1  -6  108.54   16.90
   6  -1  -6   96.37   18.30
   6  -1  -5  778.80   47.53
   6  -1  -5  627.81   55.34
   6  -1  -4  547.04   40.85
   6  -1  -4  673.74   46.88
   6  -1  -4  655.43   56.00
   6  -1  -3   61.74   14.53
   6  -1  -3   63.67   12.98
  -6   1   3   75.64   13.88
  -6   1   3   65.15   20.62
   6  -1  -3   55.75   16.37
   6  -1  -3   99.93   19.24
   6  -1  -2   67.58   15.08
   6  -1  -2   88.54   16.20
  -6   1   2  118.77   19.50
  -6   1   2  128.76   30.13
   6  -1  -2   60.69   18.59
  -6   1   1  128.21   19.91
  -6   1   1  100.87   26.72
   6  -1  -1  158.76   40.58
  -6   1   0   88.14   17.88
  -6   1   0   95.14   30.74
  -6   1  -1  779.68   87.45
  -6   1  -1  744.96   54.51
   6  -1   1  891.29   95.55
  -6   1  -2  444.96   68.34
  -6   1  -2  502.65   46.61
   6  -1   3 1745.19  146.45
  -6   1  -4  183.15   28.59
   6  -1   4  462.65   80.56
   6  -1   5  233.37   25.14
  -6   1  -5  232.67   43.75
  -6   1  -5  249.15   28.68
  -6   1  -5  231.95   19.62
   6  -1   5  257.10   54.66
  -6   1  -6   65.43   15.20
   6  -1   6   49.86   11.62
  -6   1  -6   55.27   14.22
  -6   1  -6   47.32   20.62
  -6   1  -6   72.60   12.42
   6  -1   7  486.50   48.37
  -6   1  -7  509.41   36.98
   6  -1   7  486.64   42.66
  -6   1  -7  464.16   55.41
  -6   1  -7  463.18   39.53
  -6   1  -7  446.51   34.39
   6  -1   7  530.53   66.75
  -6   1  -8   64.23   11.96
  -6   1  -8   87.44   14.38
   6  -1   8   98.97   21.91
  -6   1  -8  102.54   24.39
   6  -1   8  127.79   31.99
  -6   1  -8   75.79   15.65
  -6   1  -9  769.76   43.76
   6  -1   9  893.40   75.40
  -6   1  -9  779.20   42.22
  -6   1 -10  106.60   17.33
  -6   1 -10  104.76   15.02
  -6   1 -11  193.09   21.72
  -6   1 -11  175.51   18.47
  -6   1 -12  283.43   25.03
  -6   1 -12  256.58   22.05
  -6   1 -12  292.92   23.90
  -6   1 -12  311.42   24.62
  -6   1 -13  308.57   23.43
  -6   1 -13  295.20   22.09
  -6   1 -13  307.75   22.51
  -6   1 -13  308.32   23.84
  -6   1 -14    2.96    3.62
  -6   1 -14    1.82    3.06
  -6   1 -14    1.08    1.92
  -6   1 -14   -0.30    1.81
  -6   1 -14    0.40    2.65
  -6   1 -15   13.70    4.27
  -6   1 -15    7.77    3.38
  -6   1 -15   12.31    4.07
  -6   1 -16  119.14    9.19
  -6   1 -17   62.38    5.88
   6   0 -12  470.95   21.08
   6   0 -12  509.44   22.95
   6   0 -11   26.34    5.69
   6   0 -11   48.56    7.86
   6   0 -10   45.23    8.47
   6   0 -10   48.30    9.28
   6   0 -10   54.17    8.62
   6   0  -9   70.51   13.23
   6   0  -9   86.49   13.50
   6   0  -9   76.69   11.55
   6   0  -9   68.35   11.05
   6   0  -8  162.34   22.63
   6   0  -8  179.10   24.87
   6   0  -8  183.42   19.56
   6   0  -8  191.86   21.07
   6   0  -7  137.77   23.87
   6   0  -7  214.16   23.91
   6   0  -7  176.74   20.45
   6   0  -6   71.40   15.07
   6   0  -6   67.10   11.90
   6   0  -6   50.38   13.12
   6   0  -5  889.18   54.92
   6   0  -5  871.42   51.03
   6   0  -5  785.87   54.06
   6   0  -4  856.82   51.87
   6   0  -4  839.15   53.50
   6   0  -4 1012.23   59.20
   6   0  -4 1003.04   65.44
   6   0  -3   47.29   12.31
  -6   0   3   74.34   12.97
   6   0  -3  108.50   17.70
   6   0  -3   87.55   17.58
   6   0  -3   91.11   27.56
  -6   0   2  198.03   23.23
  -6   0   2  188.83   35.26
   6   0  -2  182.25   38.15
  -6   0   1  979.77   57.55
  -6   0   1  914.39   84.04
   6   0  -1  786.90   77.32
  -6   0   0  516.19   43.11
  -6   0   0  554.87   68.38
  -6   0  -1  714.14   52.11
  -6   0  -1  673.76   77.68
   6   0   1  762.10   75.69
  -6   0  -2  699.26   53.18
  -6   0  -2  647.12   79.07
  -6   0  -2  591.29   28.14
   6   0   2  714.28   76.52
  -6   0  -3 1297.77   49.99
  -6   0  -4  173.94   25.67
  -6   0  -4  212.86   18.00
  -6   0  -5 1273.51   68.97
   6   0   5 1075.34   54.55
  -6   0  -5 1250.72  105.04
  -6   0  -5 1158.65   50.90
  -6   0  -6  293.74   29.99
   6   0   6  284.07   26.79
  -6   0  -6  319.57   48.66
  -6   0  -6  331.06   34.33
  -6   0  -6  407.65   29.37
   6   0   7  517.39   39.81
  -6   0  -7  499.28   36.01
  -6   0  -7  514.17   56.68
  -6   0  -7  474.05   41.90
   6   0   7  587.59   67.73
  -6   0  -7  527.23   37.36
  -6   0  -8  160.56   18.39
  -6   0  -8  195.19   19.94
   6   0   8  213.28   37.09
  -6   0  -9  636.80   40.51
  -6   0  -9  773.50   39.59
  -6   0  -9  647.52   42.50
  -6   0 -10  154.63   19.47
  -6   0 -10  147.42   16.52
  -6   0 -10  141.67   18.06
  -6   0 -11  100.56   13.85
  -6   0 -11  105.38   15.02
  -6   0 -11   90.57   12.49
  -6   0 -12  343.38   26.55
  -6   0 -12  325.76   25.99
  -6   0 -12  343.78   26.94
  -6   0 -12  306.19   22.77
  -6   0 -12  316.21   25.20
  -6   0 -13  615.11   34.30
  -6   0 -13  596.22   33.69
  -6   0 -13  583.71   34.86
  -6   0 -13  598.36   34.76
  -6   0 -13  593.97   34.63
  -6   0 -14   15.56    4.74
  -6   0 -14   20.61    5.79
  -6   0 -14   15.78    6.32
  -6   0 -14   14.78    5.07
  -6   0 -14   22.61    5.99
  -6   0 -15   42.04    6.67
  -6   0 -15   43.24    7.31
  -6   0 -15   42.87    6.91
  -6   0 -16  195.10   12.28
  -6   0 -16  187.24   12.49
  -6   0 -17  107.88    8.45
  -6   0 -17   95.51    7.02
   6   1 -12  248.37   14.39
   6   1 -12  249.76   15.58
   6   1 -12  242.65   14.55
   6   1 -11    8.35    3.32
   6   1 -11    9.39    2.37
   6   1 -11    9.55    3.84
   6   1 -11    8.39    2.90
   6   1 -10  135.27   15.47
   6   1 -10  158.17   16.61
   6   1 -10  119.61   13.27
   6   1 -10  149.26   14.51
   6   1  -9   59.12   11.08
   6   1  -9   48.35   10.93
   6   1  -9   59.24   10.24
   6   1  -8    4.55    4.55
   6   1  -8   10.50    4.65
   6   1  -8   19.32    7.40
   6   1  -7  268.45   25.72
   6   1  -7  319.08   31.28
   6   1  -6   11.27    6.55
   6   1  -6   15.60    6.56
   6   1  -6   28.03   11.44
   6   1  -5  298.70   27.23
   6   1  -5  286.26   29.67
   6   1  -5  270.06   29.55
   6   1  -4  473.97   36.22
   6   1  -4  437.85   37.18
  -6  -1   4  434.74   40.69
   6   1  -4  447.78   57.39
   6   1  -3   26.00    6.42
  -6  -1   3   34.67    8.88
   6   1  -3   46.74   10.75
   6   1  -3   34.36    9.92
   6   1  -3   32.87   17.16
   6   1  -3   40.65   11.42
  -6  -1   2  367.98   30.69
   6   1  -2  349.80   28.77
   6   1  -2  354.49   48.28
  -6  -1   1  237.03   26.39
   6   1  -1  195.23   33.45
  -6  -1   0  134.06   21.45
  -6  -1   0  110.09   27.91
  -6  -1  -1  571.23   44.72
  -6  -1  -1  506.26   66.92
  -6  -1  -2  445.92   40.47
  -6  -1  -2  456.76   64.13
  -6  -1  -2  392.18   21.47
  -6  -1  -3  816.99   35.86
  -6  -1  -4  236.71   29.16
  -6  -1  -4  238.49   19.11
  -6  -1  -5  313.31   30.99
  -6  -1  -5  272.97   47.28
  -6  -1  -5  290.06   21.84
  -6  -1  -6  194.60   22.66
  -6  -1  -6  216.35   26.88
  -6  -1  -7  148.59   18.33
  -6  -1  -7  180.35   26.06
  -6  -1  -8  100.28   13.21
  -6  -1  -8   88.08   13.18
  -6  -1  -9  237.67   20.91
  -6  -1  -9  279.79   25.83
  -6  -1  -9  267.73   21.15
  -6  -1  -9  254.54   30.36
  -6  -1  -9  224.87   22.69
  -6  -1 -10   72.13   12.61
  -6  -1 -10   61.77   11.03
  -6  -1 -10   80.08   13.29
  -6  -1 -11   87.56   13.31
  -6  -1 -11   73.15   10.88
  -6  -1 -11   79.58   13.18
  -6  -1 -12   63.88   10.74
  -6  -1 -12   49.61    9.53
  -6  -1 -12   57.35    9.96
  -6  -1 -12   58.62   11.62
  -6  -1 -12   68.21   12.24
  -6  -1 -13   44.48    8.21
  -6  -1 -13   44.90    8.02
  -6  -1 -13   49.72    8.71
  -6  -1 -13   40.18    7.97
  -6  -1 -13   38.58    8.24
  -6  -1 -14   47.55    7.90
  -6  -1 -14   46.08    9.13
  -6  -1 -14   48.17    7.73
  -6  -1 -14   54.69    8.98
  -6  -1 -15  115.89   10.99
  -6  -1 -15  111.40   12.43
  -6  -1 -15  101.77   10.81
  -6  -1 -16   50.77    5.80
  -6  -1 -17   38.95    5.28
  -6  -1 -17   32.14    4.54
   6   2 -12   10.49    3.68
   6   2 -12    7.74    3.16
   6   2 -12   12.71    3.29
   6   2 -11   19.73    5.53
   6   2 -11   15.92    4.17
   6   2 -11   21.13    5.06
   6   2 -10  203.74   18.57
   6   2 -10  169.90   16.22
   6   2 -10  186.64   16.22
   6   2  -9  296.33   25.03
   6   2  -9  326.19   23.91
   6   2  -8  129.01   21.32
   6   2  -8  147.30   19.30
   6   2  -8  131.93   15.43
   6   2  -7  600.60   40.40
   6   2  -6   51.35   11.72
   6   2  -6   51.43   13.36
   6   2  -6   48.81   14.88
   6   2  -5  130.56   17.58
   6   2  -5  141.75   21.27
   6   2  -5  133.88   20.62
   6   2  -4   12.63    6.07
   6   2  -4   14.73    7.40
   6   2  -4   13.29    7.31
  -6  -2   4   17.49    6.75
   6   2  -4   25.43   11.87
   6   2  -3    4.03    3.78
  -6  -2   3   -1.63    2.47
   6   2  -3    4.42    5.29
   6   2  -3    6.26    4.14
   6   2  -3    8.99    8.72
  -6  -2   3    4.61    8.93
  -6  -2   2 1386.86   64.93
   6   2  -2 1246.29   61.66
  -6  -2   2 1333.38   85.32
   6   2  -2 1233.19   83.56
  -6  -2   1 1361.18   65.65
   6   2  -1 1276.28   58.93
  -6  -2   0  355.36   32.40
   6   2   0  322.37   51.70
  -6  -2  -1  264.78   29.54
  -6  -2  -1  192.16   14.02
  -6  -2  -1  231.89   14.53
  -6  -2  -2 1753.11   88.77
  -6  -2  -2 1789.41   60.56
  -6  -2  -3  534.68   27.75
   6   2   3  694.06   88.32
  -6  -2  -4  183.69   25.47
  -6  -2  -4  168.45   15.75
  -6  -2  -5  289.17   29.23
  -6  -2  -5  268.28   31.91
   6   2   5  319.21   52.02
  -6  -2  -5  284.18   22.35
  -6  -2  -6 2143.79   87.54
  -6  -2  -6 2003.14   70.25
  -6  -2  -6 1997.66  100.06
  -6  -2  -6 2064.20   79.49
  -6  -2  -7  266.76   24.57
  -6  -2  -7  422.82   23.88
  -6  -2  -7  351.68   37.31
  -6  -2  -7  231.97   32.88
  -6  -2  -7  513.06   32.15
  -6  -2  -7  433.38   29.51
  -6  -2  -8    0.49    2.05
  -6  -2  -8    7.10    3.81
  -6  -2  -8    3.84    5.21
  -6  -2  -8    2.16    4.30
  -6  -2  -9   49.55   11.40
  -6  -2  -9   37.95    7.84
  -6  -2  -9   52.07   10.84
  -6  -2  -9   50.42   13.55
  -6  -2  -9   37.12    8.93
  -6  -2  -9   36.65    8.91
  -6  -2 -10  586.52   40.29
  -6  -2 -10  538.83   35.20
  -6  -2 -10  489.63   32.31
  -6  -2 -10  614.17   36.98
  -6  -2 -10  621.22   37.67
  -6  -2 -11  185.02   18.64
  -6  -2 -11  192.69   19.36
  -6  -2 -11  168.13   18.63
  -6  -2 -11  162.12   19.98
  -6  -2 -12  127.40   15.13
  -6  -2 -12  124.23   14.62
  -6  -2 -12  111.58   15.85
  -6  -2 -12  110.40   14.92
  -6  -2 -12  119.32   15.89
  -6  -2 -12  125.51   15.24
  -6  -2 -13  160.80   15.48
  -6  -2 -13  157.22   16.65
  -6  -2 -13  162.26   18.53
  -6  -2 -13  163.85   17.87
  -6  -2 -13  170.14   17.31
  -6  -2 -14  187.78   15.75
  -6  -2 -14  220.42   20.49
  -6  -2 -14  181.78   16.72
  -6  -2 -14  196.62   17.81
  -6  -2 -15  171.36   13.13
  -6  -2 -15  185.88   16.64
  -6  -2 -16   42.23    6.60
  -6  -2 -17   49.37    5.71
   6   3 -12   23.39    4.26
   6   3 -12   27.67    5.01
   6   3 -12   20.65    3.92
   6   3 -12   20.62    3.78
   6   3 -11   42.15    7.45
   6   3 -11   50.19    7.96
   6   3 -11   34.83    6.01
   6   3 -11   37.51    5.82
   6   3 -10  229.01   20.24
   6   3 -10  230.85   19.57
   6   3 -10  190.47   16.80
   6   3 -10  217.05   17.19
   6   3  -9  397.34   28.95
   6   3  -9  417.18   29.98
   6   3  -9  481.57   34.78
   6   3  -8  141.46   18.65
   6   3  -8  143.95   22.03
   6   3  -8  167.72   23.64
   6   3  -8  180.74   22.00
   6   3  -7  530.98   40.25
  -6  -3   7  552.67   33.96
   6   3  -7  539.00   45.55
   6   3  -7  645.17   45.76
   6   3  -6   65.48   13.53
   6   3  -6   94.32   14.96
  -6  -3   6  111.48   15.47
   6   3  -6   90.30   18.36
   6   3  -6   82.56   18.83
   6   3  -5  239.97   23.89
  -6  -3   5  281.24   24.01
   6   3  -5  267.59   30.90
   6   3  -5  181.59   25.41
   6   3  -4   58.25   11.35
  -6  -3   4   80.73   12.23
   6   3  -4   66.70   14.58
  -6  -3   4   77.61   16.31
   6   3  -4   80.01   18.49
   6   3  -3   45.16   10.64
  -6  -3   3   28.79    8.51
   6   3  -3   26.97   10.67
  -6  -3   3   40.54   11.39
   6   3  -3   40.34   16.39
   6   3  -3   37.26   13.45
  -6  -3   2 1654.35   72.48
   6   3  -2 1569.57   75.20
  -6  -3   2 1631.94   96.44
   6   3  -2 1542.44  102.52
  -6  -3   1 1627.49   72.25
   6   3  -1 1633.77   72.74
  -6  -3   1 1566.01   97.71
  -6  -3   0  524.73   38.69
   6   3   0  565.35   35.76
  -6  -3   0  495.59   54.27
   6   3   0  510.47   66.14
  -6  -3  -1  262.76   28.34
  -6  -3  -1  215.74   18.64
  -6  -3  -1  261.68   41.73
  -6  -3  -2 2876.14  117.21
  -6  -3  -2 2847.47   95.79
  -6  -3  -2 2621.55  149.95
  -6  -3  -2 2925.97   89.74
  -6  -3  -3 1082.56   43.73
   6   3   3 1261.13  116.56
  -6  -3  -4  335.20   32.56
  -6  -3  -4  358.84   23.07
   6   3   4  407.38   61.43
  -6  -3  -5  397.30   33.17
  -6  -3  -5  435.12   41.99
  -6  -3  -5  467.94   28.41
  -6  -3  -5  385.37   46.98
   6   3   5  461.50   62.55
  -6  -3  -6 2277.83   91.63
  -6  -3  -6 2306.06   79.25
  -6  -3  -6 2423.25  113.91
  -6  -3  -6 2510.63   86.69
  -6  -3  -6 2365.19  120.18
   6   3   6 2609.94  149.98
  -6  -3  -7  332.65   26.86
  -6  -3  -7  499.02   27.27
  -6  -3  -7  509.72   48.24
  -6  -3  -7  295.92   36.40
   6   3   7  569.56   62.97
  -6  -3  -8    6.83    4.55
  -6  -3  -8   13.80    4.87
  -6  -3  -8    8.33    6.86
  -6  -3  -8   12.09    5.17
  -6  -3  -9  170.65   16.56
  -6  -3  -9  208.89   20.28
  -6  -3  -9  168.13   22.89
  -6  -3  -9  195.44   19.58
  -6  -3 -10  726.84   45.62
  -6  -3 -10  766.72   41.95
  -6  -3 -10  662.97   41.68
  -6  -3 -11  197.70   18.93
  -6  -3 -11  165.47   18.61
  -6  -3 -11  155.38   19.73
  -6  -3 -11  175.31   19.53
  -6  -3 -11  194.95   19.11
  -6  -3 -12  115.14   13.96
  -6  -3 -12  101.15   15.04
  -6  -3 -12  113.31   16.68
  -6  -3 -12  104.90   15.10
  -6  -3 -12  102.73   14.01
  -6  -3 -13  261.15   19.68
  -6  -3 -13  277.42   23.98
  -6  -3 -13  253.85   22.45
  -6  -3 -13  243.42   20.74
  -6  -3 -14  234.13   16.84
  -6  -3 -14  257.89   21.44
  -6  -3 -14  214.86   18.47
  -6  -3 -14  206.54   17.29
  -6  -3 -15  152.50   11.69
  -6  -3 -15  164.51   15.23
  -6  -3 -16   99.99    9.65
  -6  -3 -17  113.19    9.11
  -6  -3 -17  108.96    8.84
   6   4 -12   92.71    8.80
   6   4 -12   99.11    8.99
   6   4 -12   76.65    7.09
   6   4 -12  110.83    8.69
   6   4 -11    1.85    1.47
   6   4 -11    2.32    2.07
   6   4 -11    1.80    1.51
   6   4 -11    1.09    1.65
   6   4 -10  223.35   19.25
   6   4 -10  187.12   16.04
   6   4 -10  196.21   17.85
   6   4  -9  235.91   22.22
   6   4  -9  192.13   18.89
  -6  -4   9  216.60   18.58
   6   4  -9  192.66   25.59
   6   4  -9  213.19   21.72
   6   4  -8   74.70   12.64
  -6  -4   8   63.46   10.34
   6   4  -8   62.04   14.24
   6   4  -8   81.45   15.82
   6   4  -8   73.82   12.98
   6   4  -7  316.68   29.40
  -6  -4   7  373.26   29.68
   6   4  -7  374.31   38.76
   6   4  -7  405.58   37.38
   6   4  -7  417.94   33.96
  -6  -4   6   42.81   10.15
   6   4  -6   36.86   10.02
   6   4  -6   19.07   10.02
   6   4  -5  105.45   16.06
  -6  -4   5  127.98   17.74
   6   4  -5  110.92   18.68
   6   4  -4  121.11   18.01
  -6  -4   4  118.11   16.55
   6   4  -4   84.11   17.74
   6   4  -4   96.92   19.70
  -6  -4   4  122.95   22.91
   6   4  -4   95.63   22.04
  -6  -4   3    8.40    3.10
   6   4  -3    3.16    5.52
  -6  -4   3    8.78    6.66
   6   4  -3    8.72    6.53
  -6  -4   3   11.43    5.14
  -6  -4   2  976.64   74.36
   6   4  -2  870.43   72.83
  -6  -4   2  870.62   50.24
   6   4  -2  919.95   55.10
  -6  -4   1  317.41   42.07
   6   4  -1  201.97   37.84
  -6  -4   1  343.85   29.45
   6   4  -1  236.42   25.97
  -6  -4   0  179.46   32.15
   6   4   0  227.12   43.71
  -6  -4   0  204.58   23.53
   6   4   0  205.22   22.06
  -6  -4  -1  361.46   47.77
  -6  -4  -1  370.78   33.59
  -6  -4  -1  360.81   27.70
  -6  -4  -2  171.36   33.81
   6   4   2  201.78   53.48
  -6  -4  -2  154.72   21.74
  -6  -4  -2  162.74   17.97
  -6  -4  -3  233.43   17.16
  -6  -4  -3  220.52   21.87
  -6  -4  -4  157.86   14.82
   6   4   4  194.99   43.43
  -6  -4  -4  116.58   18.61
  -6  -4  -4  148.98   25.56
  -6  -4  -5   77.38   10.70
  -6  -4  -5   52.69   17.86
   6   4   5   62.96   23.52
  -6  -4  -5   63.56   12.41
  -6  -4  -5   68.65   10.30
  -6  -4  -6  801.18   63.28
   6   4   6  920.45   84.15
  -6  -4  -6  752.36   44.37
  -6  -4  -6  804.57   37.73
  -6  -4  -7  309.07   23.35
  -6  -4  -7  168.34   27.83
   6   4   7  316.07   45.05
  -6  -4  -7  187.80   19.86
  -6  -4  -7  309.09   21.73
  -6  -4  -8   23.94    7.26
  -6  -4  -8   19.84    7.91
   6   4   8   17.66    7.40
  -6  -4  -8   29.49    8.31
  -6  -4  -8   32.17    8.11
  -6  -4  -8   24.00    6.15
  -6  -4  -8   31.79    6.66
  -6  -4  -9   52.09    9.96
  -6  -4  -9   52.25    9.32
  -6  -4  -9   44.23   13.47
   6   4   9   73.21   18.77
  -6  -4  -9   67.12   11.93
  -6  -4  -9   52.27    9.75
  -6  -4 -10  221.34   20.48
  -6  -4 -10  205.98   22.63
  -6  -4 -10  227.04   19.10
  -6  -4 -10  213.11   19.46
  -6  -4 -11  110.41   15.66
  -6  -4 -11  112.82   13.77
  -6  -4 -11   91.83   14.62
  -6  -4 -11  118.63   14.50
  -6  -4 -12   63.21    9.79
  -6  -4 -12   79.63   14.01
  -6  -4 -12   66.23   12.75
  -6  -4 -12   71.66   11.68
  -6  -4 -13   34.36    6.49
  -6  -4 -13   20.21    6.39
  -6  -4 -13   22.61    6.57
  -6  -4 -13   28.82    7.35
  -6  -4 -13   21.39    6.41
  -6  -4 -14  150.06   12.60
  -6  -4 -14  172.30   17.66
  -6  -4 -14  160.91   17.37
  -6  -4 -14  144.72   14.71
  -6  -4 -14  124.79   12.85
  -6  -4 -15  119.34   12.98
  -6  -4 -15  103.59   11.40
  -6  -4 -15  113.12   12.86
  -6  -4 -16    4.26    2.13
  -6  -4 -16    4.07    2.63
  -6  -4 -16    2.89    1.33
  -6  -4 -17   13.31    3.11
  -6  -4 -17   14.46    3.42
   6   5 -12  441.49   20.44
   6   5 -12  453.00   19.68
   6   5 -11   35.76    6.45
   6   5 -11   23.84    4.52
   6   5 -11   35.30    6.33
   6   5 -10   94.25   11.99
   6   5 -10   94.31   10.53
  -6  -5  10   87.37   10.44
   6   5 -10   96.55   11.59
   6   5  -9    7.24    3.09
  -6  -5   9    8.29    4.30
   6   5  -9    9.87    5.05
   6   5  -9   14.75    6.17
   6   5  -8   72.92   12.83
   6   5  -8   84.12   14.33
  -6  -5   8  134.74   17.91
   6   5  -8   85.75   18.59
   6   5  -8   80.68   14.77
   6   5  -7  121.34   17.23
  -6  -5   7  165.66   21.49
   6   5  -7  152.23   26.38
   6   5  -7  132.91   19.44
   6   5  -7  137.61   18.06
  -6  -5   6   42.54   12.17
   6   5  -6   33.81    9.80
   6   5  -5  816.87   48.74
  -6  -5   5  874.93   45.92
  -6  -5   5  860.41   56.13
   6   5  -5  809.24   50.73
   6   5  -4  936.75   52.30
  -6  -5   4 1195.82   54.45
  -6  -5   4 1193.00   62.57
   6   5  -4  866.95   55.67
  -6  -5   4  949.52   71.36
   6   5  -4  790.71   56.60
   6   5  -4  861.09   66.86
  -6  -5   3   64.84   11.90
   6   5  -3   56.87   10.90
  -6  -5   3  117.20   15.76
   6   5  -3   50.47   13.42
  -6  -5   3   91.52   14.22
  -6  -5   3   75.70   20.62
   6   5  -3   41.38   14.90
   6   5  -2   69.37   12.82
  -6  -5   2   86.83   12.36
  -6  -5   2  113.48   26.98
  -6  -5   2  119.69   17.53
   6   5  -2   79.03   22.56
  -6  -5   1  666.65   63.45
   6   5  -1  676.45   71.93
  -6  -5   1  573.18   42.29
  -6  -5   0  254.71   40.59
   6   5   0  174.29   41.20
  -6  -5   0  259.31   28.47
  -6  -5  -1  604.83   64.58
  -6  -5  -1  664.28   47.98
  -6  -5  -1  662.57   42.70
  -6  -5  -2  749.30   73.46
  -6  -5  -2  806.79   54.58
  -6  -5  -2  834.11   49.28
  -6  -5  -3 1438.36   70.56
  -6  -5  -3 1593.19   90.97
  -6  -5  -4  267.26   19.86
  -6  -5  -4  250.39   33.71
  -6  -5  -5  669.12   63.27
   6   5   5  801.40   88.84
  -6  -5  -5  652.06   44.38
  -6  -5  -5  679.56   35.15
  -6  -5  -5  673.12   58.84
  -6  -5  -6  206.65   18.32
  -6  -5  -6  129.28   25.25
  -6  -5  -6  192.77   17.43
  -6  -5  -6  120.22   17.76
  -6  -5  -6  192.33   31.90
  -6  -5  -7  160.71   16.94
  -6  -5  -7  182.79   29.65
  -6  -5  -7  188.69   19.32
   6   5   7  179.66   34.03
  -6  -5  -7  181.24   17.41
  -6  -5  -7  182.51   16.19
  -6  -5  -8  244.55   21.50
  -6  -5  -8  264.99   22.62
  -6  -5  -8  300.33   36.61
   6   5   8  269.40   38.83
  -6  -5  -8  289.68   23.37
  -6  -5  -8  296.78   27.66
  -6  -5  -8  256.98   21.68
  -6  -5  -8  245.99   20.16
  -6  -5  -8  279.29   22.06
  -6  -5  -9  671.72   38.74
  -6  -5  -9  760.45   59.26
  -6  -5  -9  737.63   39.74
   6   5   9  701.17   61.86
  -6  -5  -9  667.63   38.00
  -6  -5  -9  766.85   46.94
  -6  -5  -9  648.46   36.03
  -6  -5  -9  695.38   36.64
  -6  -5 -10  289.07   26.16
  -6  -5 -10  174.54   17.64
  -6  -5 -10  324.48   29.95
  -6  -5 -10  143.51   16.59
  -6  -5 -10  153.52   18.84
  -6  -5 -10  149.20   16.12
  -6  -5 -10  151.46   15.95
  -6  -5 -11  100.93   15.27
  -6  -5 -11  113.05   13.66
  -6  -5 -11   86.56   14.82
  -6  -5 -11   82.18   11.33
  -6  -5 -11  121.06   16.62
  -6  -5 -11   92.36   12.25
  -6  -5 -11  112.44   13.51
  -6  -5 -12  176.69   15.76
  -6  -5 -12  157.63   18.97
  -6  -5 -12  160.85   19.41
  -6  -5 -12  162.08   15.14
  -6  -5 -13  278.58   18.28
  -6  -5 -13  314.11   25.93
  -6  -5 -13  294.57   24.60
  -6  -5 -13  234.76   22.15
  -6  -5 -13  236.51   17.92
  -6  -5 -14    6.62    3.24
  -6  -5 -14    6.27    3.41
  -6  -5 -14    3.15    2.81
  -6  -5 -14   12.79    4.30
  -6  -5 -15   79.82    9.72
  -6  -5 -15   73.52    8.65
  -6  -5 -15   88.06   11.14
  -6  -5 -16  164.88   12.42
  -6  -5 -16  178.15   13.64
  -6  -5 -16  174.26   12.40
  -6  -5 -17   83.59    8.05
  -6  -5 -17   80.00    7.50
   6   6 -12  492.95   20.78
   6   6 -12  503.74   20.21
   6   6 -11   84.48    9.35
  -6  -6  11   98.38    9.64
   6   6 -11   83.71    8.63
   6   6 -10   67.96   10.09
   6   6 -10   60.67    7.59
  -6  -6  10   49.91    7.72
   6   6 -10   57.99    8.07
   6   6  -9   43.08    7.41
  -6  -6   9   55.53    9.57
   6   6  -9   65.77   10.71
   6   6  -9   54.43    8.84
   6   6  -8  102.73   14.76
   6   6  -8  107.75   15.78
   6   6  -8  131.42   23.82
   6   6  -8   76.21   12.48
   6   6  -7  197.75   21.73
   6   6  -7  172.12   20.05
  -6  -6   7  254.63   26.87
   6   6  -7  172.02   29.22
   6   6  -7  181.13   20.02
  -6  -6   6  190.87   20.01
  -6  -6   6  228.65   29.22
   6   6  -6  116.62   17.17
   6   6  -6  132.00   17.75
  -6  -6   5 1202.66   58.99
  -6  -6   5 1256.27   75.28
   6   6  -5 1294.29   62.79
   6   6  -4  791.69   48.68
  -6  -6   4 1121.46   56.35
  -6  -6   4  981.99   59.11
   6   6  -4  860.29   52.59
  -6  -6   4  913.31   75.88
   6   6  -4  695.93   61.88
  -6  -6   3   56.93   11.30
  -6  -6   3   70.95   13.66
   6   6  -3   51.23   11.07
  -6  -6   3   49.88   19.90
   6   6  -3   35.58   10.60
  -6  -6   3   66.12   14.96
   6   6  -3   31.89   13.48
   6   6  -2  106.78   15.48
  -6  -6   2  131.60   18.01
  -6  -6   2  102.59   13.87
   6   6  -2   66.33   15.49
  -6  -6   2  182.75   38.61
   6   6  -2   52.31   21.85
   6   6  -1  412.97   29.96
  -6  -6   1  447.44   33.41
  -6  -6   1  413.86   27.28
   6   6  -1  420.69   38.00
  -6  -6   1  448.71   37.24
  -6  -6   1  432.10   54.88
  -6  -6   0  252.40   28.66
  -6  -6   0  280.06   47.04
  -6  -6   0  169.79   23.62
  -6  -6  -1  862.47   56.18
  -6  -6  -1  806.44   79.82
  -6  -6  -1  791.49   52.26
  -6  -6  -1  989.60   71.73
  -6  -6  -2  878.68   59.41
  -6  -6  -2  830.96   84.12
  -6  -6  -2  891.98   54.95
  -6  -6  -2 1016.62   71.30
  -6  -6  -3 1946.54   90.46
  -6  -6  -3 2069.45  107.78
  -6  -6  -4  233.65   27.08
  -6  -6  -4  227.92   33.14
  -6  -6  -5  591.94   42.27
  -6  -6  -5  583.79   63.37
  -6  -6  -5  550.25   54.51
  -6  -6  -6  125.82   19.20
  -6  -6  -6  104.89   26.73
  -6  -6  -6  164.91   14.99
  -6  -6  -7  387.01   26.90
  -6  -6  -7  497.39   34.44
  -6  -6  -7  477.44   51.67
   6   6   7  523.43   61.36
  -6  -6  -7  433.00   29.38
  -6  -6  -7  488.88   36.56
  -6  -6  -7  460.28   31.26
  -6  -6  -7  357.10   24.48
  -6  -6  -7  443.94   26.50
  -6  -6  -8  162.05   16.91
  -6  -6  -8  169.13   19.15
  -6  -6  -8  198.70   32.97
   6   6   8  215.79   35.18
  -6  -6  -8  182.18   19.34
  -6  -6  -8  197.36   24.04
  -6  -6  -8  168.15   18.13
  -6  -6  -8  136.25   14.71
  -6  -6  -8  163.98   16.24
  -6  -6  -9  906.43   45.43
  -6  -6  -9 1013.86   51.00
  -6  -6  -9 1043.03   77.25
   6   6   9 1069.91   77.91
  -6  -6  -9 1150.16   57.34
  -6  -6  -9  964.19   49.72
  -6  -6  -9 1135.55   61.40
  -6  -6  -9  882.09   46.38
  -6  -6  -9  823.02   43.70
  -6  -6  -9  952.94   43.26
  -6  -6  -9 1019.22   48.94
  -6  -6 -10  224.45   20.06
  -6  -6 -10  226.69   22.81
  -6  -6 -10  191.73   18.84
  -6  -6 -10  223.62   26.02
  -6  -6 -10  215.58   19.82
  -6  -6 -10  176.57   16.44
  -6  -6 -11  230.36   23.07
  -6  -6 -11  211.63   24.52
  -6  -6 -11  199.47   18.08
  -6  -6 -11  271.06   23.15
  -6  -6 -11  171.62   19.80
  -6  -6 -11  222.08   20.29
  -6  -6 -11  233.80   17.50
  -6  -6 -12  230.50   22.47
  -6  -6 -12  210.70   21.84
  -6  -6 -12  202.37   18.09
  -6  -6 -12  221.06   19.78
  -6  -6 -12  179.32   20.27
  -6  -6 -12  214.55   19.73
  -6  -6 -13  341.90   26.22
  -6  -6 -13  318.91   20.52
  -6  -6 -13  309.03   22.01
  -6  -6 -13  252.64   23.62
  -6  -6 -14   13.48    5.03
  -6  -6 -14    6.61    3.23
  -6  -6 -14   11.62    5.28
  -6  -6 -15   21.62    4.87
  -6  -6 -15   26.98    5.30
  -6  -6 -16  198.29   12.87
  -6  -6 -16  206.06   12.59
  -6  -6 -17    0.79    0.75
  -6  -7  11   15.98    3.80
   6   7 -11   10.58    3.24
  -6  -7  10   69.73    9.08
   6   7 -10   89.60   10.69
   6   7 -10   75.52    8.14
  -6  -7   9    8.80    3.68
   6   7  -9    4.19    4.38
   6   7  -9    8.24    3.52
   6   7  -9    8.52    3.15
   6   7  -8   -0.53    3.39
  -6  -7   8    9.43    5.63
   6   7  -8    6.24    5.79
   6   7  -8   -2.41    2.20
   6   7  -8    1.85    2.91
   6   7  -7  341.24   28.65
  -6  -7   7  340.76   25.55
   6   7  -7  307.32   26.36
  -6  -7   7  311.21   29.84
   6   7  -7  369.85   42.11
   6   7  -7  325.03   23.94
  -6  -7   6  105.55   22.21
  -6  -7   6   73.51   13.44
   6   7  -5  413.22   30.72
  -6  -7   5  404.45   32.59
  -6  -7   5  363.39   37.43
   6   7  -4  121.79   17.91
   6   7  -4  175.95   20.52
  -6  -7   4  143.93   34.70
   6   7  -4   88.55   22.16
   6   7  -4  157.05   20.25
  -6  -7   4  185.93   24.57
  -6  -7   4  149.78   23.60
  -6  -7   3   35.89   13.31
   6   7  -3   53.47   12.08
  -6  -7   3   34.98    8.00
  -6  -7   3   53.27   11.90
  -6  -7   3   54.04   13.46
   6   7  -3   36.21    9.49
   6   7  -2  135.80   17.03
  -6  -7   2  151.84   22.22
  -6  -7   2  141.33   18.08
   6   7  -2  159.35   20.63
  -6  -7   2  213.95   27.57
  -6  -7   2  198.39   43.56
  -6  -7   2  171.34   33.42
  -6  -7   2  261.02   29.18
  -6  -7   1   12.71    3.74
  -6  -7   1   20.43   17.47
  -6  -7   1   14.03    9.78
  -6  -7   1   14.65   10.32
  -6  -7   1   29.38   14.13
  -6  -7   1   43.83   12.95
  -6  -7   0    6.53    2.17
  -6  -7   0   28.62    8.10
  -6  -7   0   18.58   14.75
  -6  -7   0   28.36    9.36
  -6  -7   0   19.80    9.01
  -6  -7   0   15.87   13.52
  -6  -7   0   25.37    9.03
  -6  -7  -1  409.79   25.80
  -6  -7  -1  468.61   43.39
  -6  -7  -1  437.64   66.69
  -6  -7  -1  399.10   38.23
  -6  -7  -1  501.24   52.20
  -6  -7  -1  488.39   42.32
  -6  -7  -2  222.58   32.76
  -6  -7  -2  180.26   45.88
  -6  -7  -2  200.23   33.37
  -6  -7  -3  767.06   54.53
  -6  -7  -3  718.53   62.82
  -6  -7  -3  818.63   52.00
  -6  -7  -4  150.39   24.68
  -6  -7  -4  176.15   18.35
  -6  -7  -4  146.99   27.72
  -6  -7  -5    7.14   14.04
  -6  -7  -5    9.40   10.48
  -6  -7  -5    5.15    3.80
  -6  -7  -5    5.04    3.23
  -6  -7  -6   54.11   19.70
  -6  -7  -6   41.49   11.49
  -6  -7  -6   47.55    9.49
  -6  -7  -6   35.24    8.91
  -6  -7  -6   46.91   11.86
  -6  -7  -6   47.23   11.32
  -6  -7  -6   32.49    6.77
  -6  -7  -7  240.55   25.48
  -6  -7  -7  231.93   40.36
  -6  -7  -7  200.11   19.50
  -6  -7  -7  249.59   23.95
  -6  -7  -7  184.38   17.57
  -6  -7  -8    5.85    5.65
   6   7   8   17.13   10.24
  -6  -7  -8   12.61    8.10
  -6  -7  -8   12.42    6.50
  -6  -7  -8   17.35    8.44
  -6  -7  -8    8.73    4.44
  -6  -7  -8    7.30    4.50
  -6  -7  -9  223.76   24.20
  -6  -7  -9  207.61   37.83
  -6  -7  -9  227.60   21.90
  -6  -7  -9  276.02   30.86
  -6  -7  -9  170.84   20.42
  -6  -7  -9  192.60   18.88
  -6  -7  -9  171.26   17.87
  -6  -7 -10  109.17   15.82
  -6  -7 -10  131.79   20.74
  -6  -7 -10   70.43   13.69
  -6  -7 -10   50.83   10.14
  -6  -7 -10   41.81    9.44
  -6  -7 -10   54.87   13.99
  -6  -7 -10   62.45   11.72
  -6  -7 -11  174.54   19.61
  -6  -7 -11  169.49   21.79
  -6  -7 -11  194.69   15.61
  -6  -7 -11  208.18   18.68
  -6  -7 -11  216.43   22.62
  -6  -7 -11  169.93   16.67
  -6  -7 -11  130.30   17.82
  -6  -7 -11  193.45   19.88
  -6  -7 -12   82.36   13.18
  -6  -7 -12   69.30    9.39
  -6  -7 -12   71.54   11.14
  -6  -7 -12   60.74    9.94
  -6  -7 -12   81.60   12.78
  -6  -7 -12  102.57   14.12
  -6  -7 -12   76.76   13.54
  -6  -7 -13   22.80    6.40
  -6  -7 -13   11.69    2.86
  -6  -7 -13   11.85    5.10
  -6  -7 -14   14.38    4.38
  -6  -7 -14    8.34    4.12
  -6  -7 -14   13.30    3.93
  -6  -7 -14    8.10    3.66
  -6  -7 -14    7.38    3.60
  -6  -7 -15   28.62    4.96
  -6  -7 -15   30.70    5.61
  -6  -7 -15   24.95    4.24
  -6  -7 -15   35.42    6.06
  -6  -7 -16   -0.15    0.72
  -6  -7 -16   34.35    5.03
  -6  -8  11   11.79    3.21
   6   8 -11   14.07    3.18
   6   8 -10  132.05   12.14
  -6  -8  10  111.76   11.13
   6   8  -9  219.55   18.34
  -6  -8   9  200.39   17.74
   6   8  -8  161.58   13.54
   6   8  -8  181.29   18.69
  -6  -8   8  168.45   15.42
  -6  -8   8  158.80   17.99
   6   8  -7  461.39   26.28
   6   8  -7  450.18   32.85
  -6  -8   7  438.76   29.42
   6   8  -7  421.70   29.19
  -6  -8   7  455.36   36.20
   6   8  -6   43.59    8.19
  -6  -8   6   70.51   15.29
  -6  -8   6   61.46   12.51
   6   8  -6   58.62   12.32
  -6  -8   5   74.46   17.83
  -6  -8   5  121.61   20.39
   6   8  -4    7.98    9.39
  -6  -8   4   10.76    5.67
  -6  -8   4    5.70    4.76
  -6  -8   3   34.62   12.94
  -6  -8   3   14.58   11.37
  -6  -8   3   44.04   14.08
   6   8  -3   16.94    4.03
   6   8  -2  889.76   50.20
  -6  -8   2 1115.31   70.06
  -6  -8   2 1062.97   70.09
  -6  -8   2 1022.14  107.41
  -6  -8   2  823.82   67.80
  -6  -8   2 1093.61   68.19
  -6  -8   1  856.98   55.39
  -6  -8   1  638.60   39.55
  -6  -8   1  875.94   65.59
  -6  -8   1  891.23  103.42
  -6  -8   1  624.51   56.62
  -6  -8   1  756.63   73.06
  -6  -8   0  451.78   29.34
  -6  -8   0  575.64   52.10
  -6  -8   0  570.55   81.06
  -6  -8   0  451.76   45.40
  -6  -8   0  488.27   54.28
  -6  -8   0  526.30   50.08
  -6  -8  -1   55.77    8.94
  -6  -8  -1   52.34   10.70
  -6  -8  -1   54.25   28.23
  -6  -8  -1   39.29   16.66
  -6  -8  -1   52.74   15.09
  -6  -8  -1   66.15   21.59
  -6  -8  -1   72.95   19.41
  -6  -8  -2  480.63   30.53
  -6  -8  -2  515.56   29.17
  -6  -8  -2  554.67   52.85
  -6  -8  -2  602.77   88.24
  -6  -8  -2  490.91   45.78
  -6  -8  -2  535.89   57.01
  -6  -8  -2  629.38   51.77
  -6  -8  -3  123.87   22.95
  -6  -8  -3  159.47   24.37
  -6  -8  -4   30.08    6.65
  -6  -8  -4   25.43    5.96
  -6  -8  -4   40.88   14.34
  -6  -8  -4   25.54    6.62
  -6  -8  -4   27.06    6.71
  -6  -8  -5  239.48   51.87
  -6  -8  -5  317.01   37.33
  -6  -8  -5  317.00   25.63
  -6  -8  -5  276.86   26.70
  -6  -8  -5  274.40   25.31
  -6  -8  -5  282.23   21.08
  -6  -8  -6 1478.08   79.14
  -6  -8  -6 1473.70  122.47
  -6  -8  -6 1459.30   64.28
  -6  -8  -6 1312.15   52.95
  -6  -8  -6 1550.99   71.51
  -6  -8  -6 1063.29   58.28
  -6  -8  -6 1156.09   53.50
  -6  -8  -6 1672.80   75.03
  -6  -8  -7  143.26   43.18
  -6  -8  -7  239.99   20.76
  -6  -8  -7  127.72   18.91
  -6  -8  -7  213.94   18.04
  -6  -8  -8    2.76    3.81
  -6  -8  -8    2.47    8.44
  -6  -8  -8   19.23    8.96
  -6  -8  -8   10.53    4.59
  -6  -8  -8    1.50    3.17
  -6  -8  -8    8.45    3.93
  -6  -8  -8   -7.97    5.93
  -6  -8  -8    3.02    4.77
  -6  -8  -8    8.45    2.14
  -6  -8  -9   57.17   23.67
  -6  -8  -9   28.26    7.05
  -6  -8  -9   38.04    7.40
  -6  -8  -9   37.64    9.75
  -6  -8  -9   50.26   14.28
  -6  -8  -9   32.71    7.59
  -6  -8  -9   27.22    7.50
  -6  -8 -10  243.04   23.14
  -6  -8 -10  288.78   21.24
  -6  -8 -10  192.29   22.41
  -6  -8 -10  261.13   21.94
  -6  -8 -10  278.60   24.54
  -6  -8 -11   98.50   14.06
  -6  -8 -11  119.71   16.97
  -6  -8 -11  107.76   13.77
  -6  -8 -11  111.98   14.74
  -6  -8 -11   98.42   15.28
  -6  -8 -12  112.12   15.85
  -6  -8 -12   96.59   13.12
  -6  -8 -12   93.39   12.11
  -6  -8 -12  120.02   16.20
  -6  -8 -12  120.08   15.61
  -6  -8 -12   76.99   14.18
  -6  -8 -13  106.63   13.80
  -6  -8 -13  117.83   12.51
  -6  -8 -13  105.63   12.01
  -6  -8 -13   99.17   14.05
  -6  -8 -13   97.17   13.00
  -6  -8 -13  107.28   12.18
  -6  -8 -14  153.24   14.46
  -6  -8 -14  146.99   12.31
  -6  -8 -14  136.05   12.51
  -6  -8 -15   93.29    9.25
  -6  -8 -15   90.14    8.79
  -6  -8 -16   31.02    4.47
   6   9 -10  232.53   14.59
  -6  -9  10  185.01   13.62
   6   9  -9  316.39   20.69
  -6  -9   9  329.09   19.11
  -6  -9   9  325.06   21.63
   6   9  -8  304.13   22.91
  -6  -9   8  291.03   20.31
  -6  -9   8  311.58   25.29
   6   9  -7  394.48   28.86
  -6  -9   7  356.55   25.45
  -6  -9   7  340.61   30.78
  -6  -9   6   56.40   13.31
  -6  -9   6   55.61   11.23
   6   9  -6   53.22   11.63
   6   9  -5   94.65   18.11
  -6  -9   4   33.53   13.52
  -6  -9   4   12.08   13.43
  -6  -9   3   28.84    9.76
  -6  -9   3   26.42   15.61
   6   9  -3   14.59    7.97
  -6  -9   3   24.77   19.61
  -6  -9   3   10.95    8.07
  -6  -9   3   34.26   10.28
  -6  -9   2 1270.63   76.93
  -6  -9   2 1175.35   59.39
  -6  -9   2 1352.71  139.92
  -6  -9   2 1109.25   83.65
  -6  -9   2 1302.18   79.25
  -6  -9   1  681.83   52.59
  -6  -9   1  700.65   41.29
  -6  -9   1  631.46   60.41
  -6  -9   0  440.47   29.46
  -6  -9   0  585.59   59.31
  -6  -9   0  517.43   87.20
  -6  -9   0  413.65   46.03
  -6  -9   0  565.32   58.06
  -6  -9  -1  137.24   17.77
  -6  -9  -1  125.93   14.38
  -6  -9  -1  119.90   23.66
  -6  -9  -1  112.24   40.07
  -6  -9  -1  126.61   16.06
  -6  -9  -1  113.04   23.60
  -6  -9  -1  163.61   30.69
  -6  -9  -2  376.94   27.45
  -6  -9  -2  350.10   23.85
  -6  -9  -2  442.58   88.20
  -6  -9  -2  479.45   53.75
  -6  -9  -2  407.92   43.05
  -6  -9  -2  404.72   29.36
  -6  -9  -2  450.52   44.67
  -6  -9  -3   73.44   12.91
  -6  -9  -3   96.17   22.07
  -6  -9  -3   95.94   21.88
  -6  -9  -4   68.23   10.98
  -6  -9  -4   99.01   11.77
  -6  -9  -4   96.30   22.93
  -6  -9  -4   79.39   37.07
  -6  -9  -4   96.02   14.62
  -6  -9  -4   94.54   12.17
  -6  -9  -5  248.33   61.17
  -6  -9  -5  224.32   36.77
  -6  -9  -5  252.03   24.24
  -6  -9  -5  186.75   21.01
  -6  -9  -5  204.55   24.15
  -6  -9  -5  237.48   20.19
  -6  -9  -5  281.18   32.78
  -6  -9  -6 1776.79   96.32
  -6  -9  -6 1783.54  151.10
  -6  -9  -6 1651.56   72.82
  -6  -9  -6 1588.50   60.97
  -6  -9  -6 1584.47   75.03
  -6  -9  -6 1309.34   68.08
  -6  -9  -6 1430.11   62.27
  -6  -9  -6 1835.64   81.69
  -6  -9  -7   94.47   42.81
  -6  -9  -8   52.29   21.38
  -6  -9  -8   68.31   15.58
  -6  -9  -8   63.22   10.14
  -6  -9  -8   84.52   17.55
  -6  -9  -8   47.11    9.97
  -6  -9  -8   64.57   11.89
  -6  -9  -9  107.98   14.71
  -6  -9  -9   93.83   17.67
  -6  -9  -9  132.58   21.97
  -6  -9  -9   80.63   14.56
  -6  -9  -9  104.75   14.92
  -6  -9  -9   99.05   13.80
  -6  -9  -9  110.43   14.26
  -6  -9 -10  346.29   26.34
  -6  -9 -10  351.89   33.79
  -6  -9 -10  283.52   28.62
  -6  -9 -10  408.21   30.09
  -6  -9 -10  353.30   26.39
  -6  -9 -11   95.76   13.04
  -6  -9 -11   81.24   11.83
  -6  -9 -11  100.60   14.36
  -6  -9 -11   77.13   13.90
  -6  -9 -11   92.25   14.06
  -6  -9 -11   95.76   11.80
  -6  -9 -12  156.61   17.52
  -6  -9 -12  169.35   15.23
  -6  -9 -12  157.79   18.17
  -6  -9 -12  151.87   15.38
  -6  -9 -12  138.91   18.12
  -6  -9 -12  185.83   18.79
  -6  -9 -12  146.79   14.25
  -6  -9 -13  251.37   19.39
  -6  -9 -13  198.80   16.30
  -6  -9 -13  200.74   19.83
  -6  -9 -13  260.24   20.12
  -6  -9 -13  229.13   16.03
  -6  -9 -14  278.08   18.49
  -6  -9 -14  248.71   15.78
  -6  -9 -15   86.40    8.30
  -6  -9 -15   67.19    6.93
   6  10 -10   62.13    6.02
  -6 -10  10   61.09    6.72
   6  10 -10   60.21    6.17
   6  10  -9   80.14    8.91
  -6 -10   9   89.08    8.51
  -6 -10   9   79.23    9.33
   6  10  -8   58.56    8.73
  -6 -10   8   54.94    7.85
  -6 -10   8   69.81   10.73
   6  10  -7  209.65   19.22
  -6 -10   7  178.59   16.62
  -6 -10   6   42.20    9.19
   6  10  -6   27.58    8.25
  -6 -10   5   41.16   12.17
   6  10  -5   40.04   10.37
  -6 -10   5   42.45   13.41
  -6 -10   4   38.10   10.05
  -6 -10   4   54.67   12.86
  -6 -10   4   64.61   22.17
  -6 -10   3   42.49   15.62
  -6 -10   3   29.34    9.67
  -6 -10   3   45.94   21.08
  -6 -10   3   39.33   12.30
  -6 -10   2  457.26   33.17
  -6 -10   2  453.09   41.52
  -6 -10   2  453.86   53.53
  -6 -10   2  499.95   36.38
  -6 -10   2  479.69   45.32
  -6 -10   1   90.79   15.08
  -6 -10   1   62.66   41.39
  -6 -10   1   97.05   16.77
  -6 -10   1  119.96   28.81
  -6 -10   0   19.27    4.73
  -6 -10   0   21.62    5.20
  -6 -10   0   35.83   21.85
  -6 -10   0   15.13    6.84
  -6 -10   0   15.89    9.52
  -6 -10   0   27.26   13.46
  -6 -10  -1  178.25   19.61
  -6 -10  -1  172.63   16.67
  -6 -10  -1  149.71   49.52
  -6 -10  -1  149.60   28.29
  -6 -10  -1  144.54   17.80
  -6 -10  -1  196.02   33.61
  -6 -10  -2   98.20   14.11
  -6 -10  -2   87.11   12.26
  -6 -10  -2   74.84   41.51
  -6 -10  -2   87.18   14.41
  -6 -10  -2   90.56   20.39
  -6 -10  -2  107.61   23.16
  -6 -10  -3  150.12   16.06
  -6 -10  -3  140.79   14.02
  -6 -10  -3  158.75   19.04
  -6 -10  -3  142.79   25.43
  -6 -10  -4   37.69    8.46
  -6 -10  -4   33.88   31.15
  -6 -10  -4   46.93   11.27
  -6 -10  -4   57.42    9.99
  -6 -10  -5   -4.72   12.95
  -6 -10  -5   13.09    5.96
  -6 -10  -5    6.68    3.51
  -6 -10  -5   16.62    6.01
  -6 -10  -5   12.47    9.61
  -6 -10  -5   13.01   10.31
  -6 -10  -6  396.08   70.65
  -6 -10  -6  418.89   33.73
  -6 -10  -6  360.38   25.03
  -6 -10  -6  413.52   32.61
  -6 -10  -6  340.71   30.75
  -6 -10  -6  369.48   26.97
  -6 -10  -6  489.11   38.79
  -6 -10  -7  128.96   23.01
  -6 -10  -7   93.06   20.07
  -6 -10  -7   81.85   16.89
  -6 -10  -7  121.47   19.17
  -6 -10  -8   88.93   17.73
  -6 -10  -8   96.42   17.34
  -6 -10  -8   92.93   14.76
  -6 -10  -8   84.59   12.76
  -6 -10  -8   95.22   13.20
  -6 -10  -9    9.83    7.74
  -6 -10  -9   12.17    6.66
  -6 -10  -9    6.85    4.33
  -6 -10  -9   17.62    6.47
  -6 -10 -10   98.74   17.29
  -6 -10 -10  131.05   16.24
  -6 -10 -10  129.62   15.11
  -6 -10 -11   51.30    8.74
  -6 -10 -11   55.52   11.14
  -6 -10 -11   48.76    7.80
  -6 -10 -11   53.47    9.71
  -6 -10 -12   19.26    5.80
  -6 -10 -12   14.23    5.47
  -6 -10 -12   24.36    7.24
  -6 -10 -12   27.88    7.58
  -6 -10 -12   16.67    4.87
  -6 -10 -13   20.17    5.11
  -6 -10 -13   16.34    4.67
  -6 -10 -13   32.24    6.21
  -6 -10 -13   18.08    3.91
  -6 -10 -14   57.25    6.98
   6  11  -9    0.50    0.75
  -6 -11   9   -0.16    0.83
  -6 -11   8   27.06    5.14
   6  11  -8   28.70    5.69
   6  11  -7  156.82   14.94
  -6 -11   7  130.57   13.04
  -6 -11   6   62.72   12.00
  -6 -11   6   57.43   10.11
   6  11  -6   43.99    8.80
   6  11  -5  524.75   34.32
  -6 -11   5  475.14   33.24
  -6 -11   5  443.91   33.28
   6  11  -4  479.13   34.66
  -6 -11   4  503.36   39.73
  -6 -11   4  506.08   36.00
  -6 -11   3   53.36   14.25
  -6 -11   3   67.07   14.66
  -6 -11   3   57.19   13.15
  -6 -11   2  104.01   15.43
  -6 -11   2  104.97   19.53
  -6 -11   1   60.39   10.32
  -6 -11   1   68.49   13.38
  -6 -11   1   59.58   16.05
  -6 -11   0    2.87    3.79
  -6 -11   0   10.67    6.47
  -6 -11   0    3.36    3.89
  -6 -11   0    6.59    7.04
  -6 -11  -1  466.76   33.66
  -6 -11  -1  436.22   27.33
  -6 -11  -1  411.30   32.17
  -6 -11  -1  426.41   47.22
  -6 -11  -3  800.65   41.30
  -6 -11  -3  842.52   38.25
  -6 -11  -3  804.59   47.45
  -6 -11  -3  855.16   61.54
  -6 -11  -4  109.15   19.40
  -6 -11  -4  133.77   16.87
  -6 -11  -5   47.79   11.89
  -6 -11  -5   40.27    7.67
  -6 -11  -5   44.69    8.62
  -6 -11  -5   56.73   14.12
  -6 -11  -5   38.12   11.58
  -6 -11  -6   21.02   10.19
  -6 -11  -6   13.39    5.80
  -6 -11  -6   17.82    4.78
  -6 -11  -6   24.67   10.53
  -6 -11  -6   18.74    8.66
  -6 -11  -7   92.69   18.22
  -6 -11  -7  102.43   15.87
  -6 -11  -7   77.80   15.13
  -6 -11  -7  102.22   14.17
  -6 -11  -7   78.99   15.46
  -6 -11  -7  102.54   12.81
  -6 -11  -8  169.55   22.18
  -6 -11  -8  157.29   19.16
  -6 -11  -8  176.96   18.51
  -6 -11  -8  214.07   21.48
  -6 -11  -8  197.82   18.55
  -6 -11  -9  484.28   39.21
  -6 -11  -9  572.67   38.59
  -6 -11  -9  557.64   34.89
  -6 -11  -9  556.66   34.76
  -6 -11 -10  102.81   16.43
  -6 -11 -10   74.32   12.45
  -6 -11 -11  133.17   14.57
  -6 -11 -11  168.61   17.95
  -6 -11 -11  143.06   13.98
  -6 -11 -11  137.40   14.94
  -6 -11 -12  110.65   11.49
  -6 -11 -12   92.64   10.58
  -6 -11 -12  117.44   12.89
  -6 -11 -13   68.01    7.39
  -6 -11 -13   59.43    7.15
  -6 -11 -13   63.91    7.87
  -6 -11 -14    0.38    0.35
   6  12  -8   70.49    6.86
  -6 -12   8   70.14    7.04
  -6 -12   8   90.16    9.43
   6  12  -7   44.89    5.82
   6  12  -7   62.91    7.92
  -6 -12   7   59.48    7.90
  -6 -12   7   76.34   10.33
   6  12  -6   79.32   10.60
  -6 -12   6   73.79   10.10
  -6 -12   6   85.74   12.28
   6  12  -5  510.44   31.24
  -6 -12   5  517.27   32.35
  -6 -12   5  490.62   31.71
   6  12  -4  252.85   23.51
  -6 -12   4  282.51   26.01
  -6 -12   4  306.17   25.87
  -6 -12   4  250.68   23.48
  -6 -12   3    6.72    5.40
   6  12  -3    9.96    6.32
  -6 -12   3   11.00    7.46
  -6 -12   2    9.94    8.03
  -6 -12   2   17.70   10.74
  -6 -12   1  160.24   20.44
  -6 -12   1  182.53   17.45
  -6 -12   1  177.78   32.79
  -6 -12   1  173.90   28.91
  -6 -12   0   18.98    7.31
  -6 -12   0    9.53    6.99
  -6 -12   0   10.45    8.25
  -6 -12   0   14.91   12.41
  -6 -12  -1  446.73   31.95
  -6 -12  -1  460.02   26.53
  -6 -12  -1  417.07   44.78
  -6 -12  -2  186.09   33.25
  -6 -12  -3  662.64   35.78
  -6 -12  -3  631.93   43.98
  -6 -12  -4  141.13   16.95
  -6 -12  -5   68.95   14.54
  -6 -12  -5   69.94   11.24
  -6 -12  -5   78.21   16.39
  -6 -12  -5   67.29   10.02
  -6 -12  -6   50.88   14.62
  -6 -12  -6   51.21   10.14
  -6 -12  -6   36.65   10.39
  -6 -12  -6   26.59   10.12
  -6 -12  -6   60.68   10.08
  -6 -12  -7  119.79   17.19
  -6 -12  -7  129.55   18.20
  -6 -12  -7  123.57   15.12
  -6 -12  -7  162.22   18.73
  -6 -12  -7  134.35   14.18
  -6 -12  -8   81.34   15.75
  -6 -12  -8   68.12   11.19
  -6 -12  -8   96.97   13.97
  -6 -12  -8   66.30   10.48
  -6 -12  -9  400.31   26.77
  -6 -12  -9  314.05   25.09
  -6 -12  -9  333.40   24.67
  -6 -12 -10  110.87   11.78
  -6 -12 -11  161.84   12.74
  -6 -12 -11  139.19   12.80
  -6 -12 -11  147.40   14.13
  -6 -12 -12  132.24   10.61
  -6 -12 -12  128.81   11.17
  -6 -12 -13  131.33   10.07
  -6 -13   6   10.65    4.16
  -6 -13   6   15.28    3.95
   6  13  -6   11.99    3.44
   6  13  -5  140.26   13.14
  -6 -13   5  134.78   13.83
  -6 -13   5  165.42   14.41
   6  13  -4  102.29   12.39
  -6 -13   4   99.58   12.88
  -6 -13   4  118.33   13.14
  -6 -13   4   96.32   12.54
  -6 -13   3    7.54    5.09
   6  13  -3    3.74    4.49
  -6 -13   3   -6.41    7.80
  -6 -13   2   90.50   14.13
  -6 -13   2  114.81   12.72
  -6 -13   2  110.67   18.31
  -6 -13   1   14.87    5.61
  -6 -13   1   15.90    7.51
  -6 -13   1   21.56   10.28
  -6 -13   0   70.14   11.55
  -6 -13   0   59.33    8.44
  -6 -13   0   36.74   12.14
  -6 -13  -1  163.53   17.44
  -6 -13  -1  156.45   25.34
  -6 -13  -2   18.41    8.16
  -6 -13  -2   49.82    8.30
  -6 -13  -2   19.23   11.73
  -6 -13  -3  199.60   16.80
  -6 -13  -3  179.32   15.18
  -6 -13  -3  214.57   19.58
  -6 -13  -4   67.41   17.73
  -6 -13  -4   73.62   11.38
  -6 -13  -4   77.95    9.93
  -6 -13  -5   13.55    7.89
  -6 -13  -5   18.08    5.50
  -6 -13  -5    7.46    3.07
  -6 -13  -5    8.03    7.74
  -6 -13  -6   80.45   14.21
  -6 -13  -6   79.70   14.28
  -6 -13  -6   89.10   12.31
  -6 -13  -6  102.10   14.11
  -6 -13  -6   86.72   10.32
  -6 -13  -7   22.39    7.90
  -6 -13  -7   41.26    9.55
  -6 -13  -7   42.01    8.58
  -6 -13  -8   62.78    9.93
  -6 -13  -8   50.12    8.73
  -6 -13  -9   73.34   10.08
  -6 -13  -9   69.33    9.89
  -6 -13 -10   13.25    4.87
  -6 -13 -10   25.17    6.22
  -6 -13 -11   84.14    8.30
  -6 -13 -11   63.37    7.97
  -6 -14   4    1.28    1.42
   6  14  -4    0.81    1.81
  -6 -14   4   -3.02    2.34
  -6 -14   3    0.23    1.04
  -6 -14   3    1.63    2.57
   6  14  -3    0.66    2.30
  -6 -14   3    0.94    2.73
   6  14  -2  333.99   21.99
  -6 -14   2  313.71   23.50
  -6 -14   2  375.94   30.11
  -6 -14   1    0.53    1.68
  -6 -14   1  126.57   20.42
  -6 -14   0  128.31   14.17
  -6 -14   0  108.30   18.44
  -6 -14  -1   21.26    5.89
  -6 -14  -1   25.63    6.07
  -6 -14  -1   39.91   11.23
  -6 -14  -2   96.95   17.39
  -6 -14  -2  119.51   13.64
  -6 -14  -3   25.61    7.48
  -6 -14  -4    9.82    3.07
  -6 -14  -4   10.17    3.19
  -6 -14  -5   81.88   11.24
  -6 -14  -5   54.73   13.18
  -6 -14  -6  430.21   30.51
  -6 -14  -6  442.15   26.85
  -6 -14  -7   52.28    9.04
  -6 -14  -7   27.44    8.13
  -6 -14  -8    5.12    2.94
  -6 -14  -8    2.10    2.40
  -6 -14  -9   28.28    4.80
  -6 -14  -9   30.55    5.58
  -6 -15   2  278.27   17.73
   6  15  -2  262.06   15.73
  -6 -15   2  300.87   21.35
  -6 -15   2  239.18   14.23
   6  15  -1  135.40   12.84
  -6 -15   1  147.58   13.69
  -6 -15   1  174.82   19.37
  -6 -15   1  177.68   13.73
  -6 -15   0  112.39   16.28
  -6 -15   0  116.78   11.85
  -6 -15  -1   36.09    7.25
  -6 -15  -1   29.60    9.16
  -6 -15  -2  134.64   19.06
  -6 -15  -2  137.77   13.79
  -6 -15  -3   47.00    8.32
  -6 -15  -4    3.01    4.52
  -6 -15  -4   11.01    3.64
  -6 -15  -5   70.76   12.14
  -6 -15  -5   86.46   10.47
  -6 -15  -6  414.23   23.56
   7  -9  -1  142.23   18.86
   7  -9  -1  152.08   16.71
   7  -9  -1  100.67    9.17
  -7   9   0  262.83   21.28
   7  -9   0  265.13   28.61
   7  -9   0  297.68   29.03
   7  -9   0  213.89   14.79
   7  -9   1  -10.83   11.45
  -7   9  -1    5.63    3.10
   7  -9   1    7.56    4.71
   7  -9   1   -1.09    8.73
   7  -9   1    4.99    2.61
  -7   9  -2   57.25   11.09
   7  -9   2   59.55   12.32
   7  -9   2   74.54   19.19
   7  -9   2   53.16    7.47
   7  -9   3   -6.42   11.11
  -7   9  -3    8.00    3.11
   7  -9   3   25.42    7.22
   7  -9   3    8.20    6.44
   7  -9   3   19.94    5.43
   7  -9   4   30.15   18.98
   7  -9   4    3.65    2.39
   7  -9   5  200.58   28.39
  -7   9  -5  124.14   12.85
   7  -9   6    7.74    4.16
  -7   9  -6  255.76   16.59
   7  -9   7   -0.53    0.94
   7  -9   7   58.35    9.40
   7  -8  -4   55.75   10.83
   7  -8  -4   53.32    9.14
   7  -8  -3   -1.61    1.63
   7  -8  -3    7.26    5.28
   7  -8  -2  281.56   25.62
  -7   8   2  335.81   24.50
   7  -8  -2  306.71   22.70
   7  -8  -2  294.70   28.61
   7  -8  -2  304.88   18.50
   7  -8  -1   52.76   12.67
  -7   8   1  102.54   15.09
   7  -8  -1   91.75   18.79
   7  -8  -1   71.06   15.91
   7  -8  -1   69.71    8.71
   7  -8   0  382.16   46.35
  -7   8   0  343.86   29.84
   7  -8   0  408.15   43.64
   7  -8   0  369.62   42.55
   7  -8   0  315.31   20.82
   7  -8   1   17.66   16.76
  -7   8  -1    2.49    4.33
   7  -8   1    5.36    5.49
   7  -8   1    1.16    1.76
  -7   8  -2   55.34   13.46
   7  -8   2   62.85   14.47
   7  -8   2   50.99    8.27
  -7   8  -3   14.13    6.17
   7  -8   3   19.36   10.27
   7  -8   4  -34.70   25.20
   7  -8   4    1.46    3.98
   7  -8   5   60.07   11.36
  -7   8  -5  126.21   16.83
   7  -8   6  357.83   30.25
   7  -8   6  421.06   48.28
  -7   8  -6  339.01   25.55
   7  -8   7   18.36    6.97
   7  -8   7   12.91    6.12
  -7   8  -7   15.36    5.09
   7  -8   8   67.73   12.32
   7  -8   8   78.75   12.34
  -7   8  -8   68.27    8.25
   7  -8   9   30.34    7.20
   7  -8   9   27.52    8.32
   7  -7  -5  272.19   21.27
   7  -7  -5  352.23   27.52
   7  -7  -4   39.57    8.40
   7  -7  -3   22.08    6.44
  -7   7   3   18.54    5.91
   7  -7  -3    9.48    4.68
   7  -7  -3   24.04   10.22
   7  -7  -3   -0.30    1.52
   7  -7  -2   54.83   14.87
  -7   7   2   62.77   11.41
   7  -7  -2   59.15   13.78
   7  -7  -2   58.67    8.53
  -7   7   1   25.35    7.31
   7  -7  -1   32.13    6.72
  -7   7   0  262.54   28.98
   7  -7   0  238.93   19.39
   7  -7   1  185.38   67.63
  -7   7  -1  159.22   24.65
  -7   7  -2   43.56   13.12
   7  -7   3  746.20  151.77
  -7   7  -3  296.40   34.43
   7  -7   4  -35.96   54.12
  -7   7  -5   92.72   17.22
   7  -7   5   73.35   13.70
  -7   7  -6   71.91   12.69
   7  -7   6   49.70   19.95
  -7   7  -7    8.82    4.55
   7  -7   7   17.31   14.58
  -7   7  -8  123.82   13.37
   7  -7   8  141.24   24.42
   7  -7   9   11.70    6.18
  -7   7  -9    0.65    1.20
  -7   7 -10  104.84    9.52
  -7   7 -11  195.31   12.27
   7  -7  11  194.70   19.02
   7  -6  -7    1.33    2.75
   7  -6  -7    0.88    2.54
   7  -6  -6   10.52    4.72
   7  -6  -6    6.29    3.62
   7  -6  -5  686.60   40.73
   7  -6  -5  656.03   42.82
   7  -6  -4   -6.12    5.85
   7  -6  -4  150.34   18.96
   7  -6  -3   55.20   16.38
  -7   6   3   55.44   11.20
   7  -6  -3   77.10   13.49
   7  -6  -3   58.58    8.95
   7  -6  -2   -3.78   13.71
  -7   6   2    1.48    4.97
   7  -6  -2   -1.23    4.20
   7  -6  -1  373.86   63.79
  -7   6   1  344.78   33.06
   7  -6  -1  374.41   25.57
   7  -6   0   57.41   31.05
   7  -6   0   30.73   12.08
  -7   6   0   36.26   11.35
   7  -6   0   29.95   48.17
  -7   6   0   49.83   22.90
   7  -6   0   19.99    5.21
  -7   6  -1  146.34   25.59
   7  -6   1  275.99  175.15
  -7   6  -1  138.43   40.45
   7  -6   1  218.02   87.32
  -7   6  -2  150.77   26.97
  -7   6  -2  127.53   40.50
  -7   6  -3  910.98  114.36
  -7   6  -3  914.43   74.42
   7  -6   4   87.50   74.72
   7  -6   4  118.71  111.68
  -7   6  -4    4.00   13.81
   7  -6   5   11.77   39.94
  -7   6  -5    9.26    9.91
   7  -6   5   53.96   67.38
  -7   6  -5   18.64   14.54
   7  -6   6   29.68   24.48
  -7   6  -6   40.65   11.22
   7  -6   7   96.67   25.01
  -7   6  -7   95.86   15.18
   7  -6   8  103.92   27.35
  -7   6  -8  151.48   15.93
  -7   6  -8  140.14   16.49
   7  -6   9  130.06   22.08
  -7   6  -9  171.37   16.20
  -7   6  -9  150.27   15.76
  -7   6 -10  301.23   21.72
  -7   6 -10  309.27   18.06
  -7   6 -11  389.55   23.18
  -7   6 -12   45.31    5.97
  -7   6 -13   23.37    3.39
   7  -6  13   25.74    5.13
   7  -6  13   20.25    4.46
   7  -5  -8    1.47    1.28
   7  -5  -8    3.44    2.48
   7  -5  -7   38.42    5.61
   7  -5  -7   33.96    6.77
   7  -5  -6   -2.08    3.56
   7  -5  -6    4.48    3.69
   7  -5  -6    1.29    4.37
   7  -5  -5  637.00   42.25
   7  -5  -5  500.31   42.18
   7  -5  -4  168.07   21.23
   7  -5  -4  136.99   22.36
   7  -5  -3  114.72   26.77
  -7   5   3  166.55   20.02
   7  -5  -3  181.37   21.78
   7  -5  -3  149.66   14.67
   7  -5  -2  119.72   37.05
   7  -5  -2  152.87   28.82
  -7   5   2   93.82   16.43
   7  -5  -2   79.76   39.38
  -7   5   2   77.13   23.43
   7  -5  -2  132.61   14.31
   7  -5  -1  182.53   52.19
   7  -5  -1  164.07   30.57
   7  -5  -1  229.52  102.92
  -7   5   1  111.01   30.83
  -7   5   1  150.32   22.93
   7  -5  -1  165.47   16.35
  -7   5   0   64.85   16.64
  -7   5   0   45.10   19.53
   7  -5   0   67.17   25.36
  -7   5  -1  109.36   23.58
  -7   5  -1  123.98   36.84
   7  -5   1  153.24   80.73
  -7   5  -2  242.31   58.56
  -7   5  -2  254.63   39.15
  -7   5  -3 1228.95  152.69
  -7   5  -3 1373.94  103.89
   7  -5   4  137.74   75.46
   7  -5   5    6.66   32.58
  -7   5  -5   34.45   11.77
  -7   5  -5   42.33   24.66
   7  -5   6    8.99   28.60
  -7   5  -6    2.58    3.45
  -7   5  -6    2.09    5.32
  -7   5  -6    8.34   14.06
   7  -5   7   22.61   22.81
  -7   5  -7   -1.73    6.33
  -7   5  -7    9.99    6.31
   7  -5   7    9.82   43.17
  -7   5  -7    2.21    5.80
   7  -5   8  271.94   44.69
  -7   5  -8  400.26   29.77
  -7   5  -8  347.61   29.07
   7  -5   8  338.43   91.64
  -7   5  -8  288.51   43.29
   7  -5   9  185.33   33.13
  -7   5  -9  248.98   23.46
  -7   5  -9  230.67   21.27
  -7   5 -10  252.23   22.86
  -7   5 -11  286.25   22.35
  -7   5 -11  269.67   18.74
  -7   5 -12   19.84    5.31
  -7   5 -12   17.18    4.27
  -7   5 -13   11.60    3.02
  -7   5 -13   10.63    3.18
  -7   5 -13   12.93    2.88
  -7   5 -14    3.04    1.35
   7  -5  14    5.59    3.00
   7  -5  14    9.77    3.79
   7  -4  -9    3.40    1.33
   7  -4  -8  236.49   15.18
   7  -4  -8  231.34   16.32
   7  -4  -7  144.66   16.20
   7  -4  -7  135.58   12.22
   7  -4  -7  133.31   15.58
   7  -4  -6   18.00    5.50
   7  -4  -6    5.27    5.57
   7  -4  -6   14.77    5.99
   7  -4  -6   30.76    9.72
   7  -4  -6   24.33    9.60
   7  -4  -5   55.74    9.28
   7  -4  -5   55.66   13.06
   7  -4  -5   44.60   13.24
   7  -4  -4   29.06    7.75
   7  -4  -4   21.18    8.41
   7  -4  -4   28.27   12.54
   7  -4  -4   37.73   10.13
   7  -4  -3   56.21   16.92
   7  -4  -3   17.43   15.18
  -7   4   3   36.66    9.06
   7  -4  -3   47.37   42.20
   7  -4  -2  380.81   62.96
  -7   4   2  444.16   36.33
  -7   4   2  399.43   54.85
   7  -4  -2  510.11   29.79
  -7   4   1    2.80    4.53
  -7   4   1    4.90    7.83
  -7   4   0  251.38   50.69
  -7   4   0  243.50   31.15
  -7   4  -1   19.81    9.77
  -7   4  -1  -11.15   21.18
  -7   4  -2   18.46   12.81
  -7   4  -2   -4.85   14.95
   7  -4   3  421.47  106.37
  -7   4  -3  441.17   86.67
  -7   4  -3  351.77   50.03
   7  -4   4  -14.06   26.37
   7  -4   5  137.66   51.52
  -7   4  -5  141.64   26.34
  -7   4  -5  100.96   36.32
   7  -4   6  260.40   63.09
  -7   4  -6  304.48   25.25
  -7   4  -6  243.40   50.45
  -7   4  -6  317.63   34.92
   7  -4   7   15.33   18.74
  -7   4  -7   10.25    5.45
  -7   4  -7   17.18    7.47
  -7   4  -7   19.04   13.41
  -7   4  -8  475.11   36.45
  -7   4  -8  449.10   34.87
  -7   4  -8  372.17   51.04
   7  -4   9  -12.24   12.19
  -7   4  -9   -0.78    5.64
  -7   4  -9    6.71    5.36
  -7   4  -9    6.39    7.99
  -7   4 -10    3.74    3.76
  -7   4 -11   52.86   10.11
  -7   4 -12    3.09    2.41
  -7   4 -12   11.04    4.98
  -7   4 -13  319.36   20.89
  -7   4 -13  358.13   20.42
  -7   4 -14   78.52    7.60
   7  -4  14   78.62   10.53
  -7   4 -14   77.37    7.11
   7  -4  15    5.15    1.50
   7  -4  15    6.10    2.16
   7  -3 -10   70.38    6.74
   7  -3  -9    1.12    1.65
   7  -3  -9   49.19    6.44
   7  -3  -8  507.74   27.07
   7  -3  -8  502.81   29.47
   7  -3  -8  462.72   25.10
   7  -3  -8  478.88   26.57
   7  -3  -7  305.44   24.46
   7  -3  -7  298.89   20.85
   7  -3  -7  327.03   26.17
   7  -3  -7  287.33   27.08
   7  -3  -7  328.81   30.30
   7  -3  -7  289.19   24.62
   7  -3  -6   14.04    6.02
   7  -3  -6   17.93    5.53
   7  -3  -6   23.56    8.92
   7  -3  -6    6.55    6.66
   7  -3  -5   -1.40    2.61
   7  -3  -5    1.54    2.34
   7  -3  -5   -2.73    6.80
   7  -3  -5    2.82    6.70
   7  -3  -4  187.84   22.42
   7  -3  -4  183.89   19.32
   7  -3  -4  177.66   23.02
   7  -3  -4  123.64   28.21
   7  -3  -4  190.36   30.62
   7  -3  -3   -1.47    4.51
   7  -3  -3   -1.90    4.20
  -7   3   3   -2.90    4.19
  -7   3   3   -1.88    6.92
   7  -3  -3  -20.06   25.38
   7  -3  -3   -3.02    6.89
   7  -3  -2  872.14   48.96
   7  -3  -2  650.12   81.43
  -7   3   2  820.53   51.35
  -7   3   2  837.32   78.89
   7  -3  -1  347.72   27.51
  -7   3   1  319.71   51.40
  -7   3   1  302.19   31.49
   7  -3  -1  336.26   57.99
   7  -3   0 1193.91  121.28
  -7   3   0 1072.64  105.06
  -7   3   0 1109.78   69.88
  -7   3  -1   12.60    7.57
  -7   3  -1   -3.65   19.14
   7  -3   1   27.76   18.05
  -7   3  -2  167.84   30.40
  -7   3  -2  166.95   48.12
  -7   3  -3   -1.66    9.82
  -7   3  -3   -4.33   15.80
   7  -3   3  -37.71   21.00
   7  -3   4   -4.38   29.89
  -7   3  -5  582.57   87.49
  -7   3  -5  657.95   55.48
   7  -3   5  536.83   81.74
  -7   3  -5  536.60   33.24
   7  -3   6 1449.62  132.39
  -7   3  -6 1550.05   68.45
  -7   3  -6 1639.58  134.77
  -7   3  -6 1667.77   89.08
  -7   3  -7  171.14   20.58
   7  -3   7  186.75   46.94
  -7   3  -7  181.82   23.23
  -7   3  -7  165.30   36.40
  -7   3  -8  507.91   40.21
  -7   3  -8  436.17   35.02
  -7   3  -8  428.74   54.15
   7  -3   9   69.05   23.03
  -7   3  -9  120.06   19.84
  -7   3  -9  123.06   16.61
  -7   3  -9  117.35   25.08
  -7   3 -10   50.71   12.89
  -7   3 -10   40.57    8.67
  -7   3 -11   19.94    7.39
  -7   3 -12   83.88   11.10
  -7   3 -13  759.64   36.20
  -7   3 -14  265.97   17.04
  -7   3 -14  265.62   16.92
  -7   3 -15   22.30    3.85
   7  -3  15   23.54    4.64
   7  -3  15   16.65    3.58
  -7   3 -15   18.72    3.53
   7  -2 -10   73.74    7.76
   7  -2  -9   12.34    3.21
   7  -2  -9    8.65    4.27
   7  -2  -9   10.16    3.29
   7  -2  -9   10.50    3.54
   7  -2  -8  229.22   20.36
   7  -2  -8  231.34   21.29
   7  -2  -8  224.72   18.93
   7  -2  -8  221.43   17.73
   7  -2  -8  203.56   16.64
   7  -2  -7  177.13   18.30
   7  -2  -7  198.99   17.81
   7  -2  -7  185.22   22.82
   7  -2  -7  216.85   25.55
   7  -2  -7  139.21   17.10
   7  -2  -6   13.97    6.33
   7  -2  -6   12.13    5.86
   7  -2  -6   11.48    5.77
   7  -2  -6    5.79    3.57
   7  -2  -5  111.61   16.65
   7  -2  -5  123.36   16.03
   7  -2  -4  116.57   18.07
   7  -2  -4  141.34   18.48
   7  -2  -4  105.63   22.02
   7  -2  -3    8.66    3.62
   7  -2  -3    6.07    5.03
  -7   2   3    6.45    2.43
  -7   2   3    9.20    7.42
   7  -2  -3   -5.83    9.35
   7  -2  -2  445.34   34.64
   7  -2  -2  433.86   54.46
  -7   2   2  464.33   37.02
  -7   2   2  417.37   54.12
   7  -2  -1  270.19   23.89
  -7   2   1  214.45   26.09
  -7   2   1  205.44   40.98
   7  -2  -1  284.34   43.41
   7  -2   0 1280.31  104.55
  -7   2   0 1223.90  111.37
  -7   2   0 1265.06   74.54
  -7   2  -1   27.82   13.14
  -7   2  -1   18.02   18.88
  -7   2  -2  191.60   31.17
  -7   2  -2  185.46   45.96
   7  -2   2  241.11   69.30
  -7   2  -3    5.76    9.58
  -7   2  -3    7.47   18.17
   7  -2   3   31.88   38.15
   7  -2   3   12.63   20.73
  -7   2  -4   55.50    8.64
   7  -2   4   50.97   20.66
   7  -2   4   66.02   44.50
   7  -2   5  802.77   87.74
  -7   2  -5  928.97  105.69
  -7   2  -5 1055.78   70.46
   7  -2   5 1180.23  156.87
  -7   2  -5  866.48   44.12
   7  -2   6 1140.16  101.27
  -7   2  -6 1391.97   78.47
  -7   2  -6 1307.37  115.48
  -7   2  -6 1228.61   58.72
  -7   2  -7   72.72   15.31
  -7   2  -7   95.32   28.11
   7  -2   7   69.73   22.83
  -7   2  -7   82.43   14.48
  -7   2  -8   97.90   15.99
  -7   2  -8   73.52   21.48
   7  -2   8   43.07   14.08
  -7   2  -8   80.09   15.86
  -7   2  -9   72.89   12.95
  -7   2  -9   60.68   19.50
   7  -2   9   53.17   21.34
  -7   2  -9   78.67   17.57
  -7   2 -10   -1.55    3.92
  -7   2 -10    4.79    8.60
  -7   2 -11  250.34   20.61
  -7   2 -12   41.94    7.40
  -7   2 -12   32.68    6.83
  -7   2 -13  421.18   26.65
  -7   2 -13  380.80   22.68
  -7   2 -13  417.21   26.80
  -7   2 -14   95.03   10.33
  -7   2 -14   93.28   10.36
  -7   2 -14   97.18   10.76
  -7   2 -15   14.02    3.12
  -7   2 -15   17.74    4.07
  -7   2 -16   28.27    3.96
   7  -1 -11   22.60    3.94
   7  -1 -10  126.06   10.52
   7  -1 -10  117.01   11.69
   7  -1 -10  133.63   11.68
   7  -1  -9   32.27    7.14
   7  -1  -9   29.12    6.81
   7  -1  -9   29.50    6.09
   7  -1  -9   28.11    5.97
   7  -1  -8    6.59    3.15
   7  -1  -8   14.10    4.41
   7  -1  -8   11.08    4.03
   7  -1  -7   21.35    9.45
   7  -1  -7   20.11    6.51
   7  -1  -7   17.76    5.75
   7  -1  -7   16.04    4.49
   7  -1  -6    0.64    2.38
   7  -1  -6    0.63    3.26
   7  -1  -6    1.61    5.31
   7  -1  -5  644.48   42.68
   7  -1  -5  733.44   45.75
   7  -1  -4   61.28   14.30
   7  -1  -4   46.59    9.74
   7  -1  -4   49.00   12.13
   7  -1  -4   28.45   11.52
   7  -1  -3   66.00   14.73
   7  -1  -3   62.54   13.46
  -7   1   3   44.48   10.11
   7  -1  -3   49.93   12.18
   7  -1  -3   48.10   15.37
   7  -1  -3   65.37   15.78
   7  -1  -2   84.05   16.36
   7  -1  -2   58.62   12.47
  -7   1   2   81.77   14.45
  -7   1   2   91.39   23.19
   7  -1  -2   79.80   18.81
   7  -1  -1   29.47   10.32
   7  -1  -1   28.75    8.69
  -7   1   1   29.72   11.55
  -7   1   1   16.12    7.74
   7  -1  -1   24.47   15.24
   7  -1  -1   33.75   27.15
  -7   1   0  156.98   25.28
  -7   1   0  152.91   39.17
   7  -1   0  155.61   29.73
  -7   1  -1  146.06   26.00
  -7   1  -1  153.27   43.22
   7  -1   1  136.32   27.32
   7  -1   1  163.65   44.46
  -7   1  -2   94.59   21.70
  -7   1  -2  134.65   39.20
   7  -1   2  184.82   55.15
  -7   1  -3  865.24  102.17
  -7   1  -3  913.03   67.75
  -7   1  -3 1032.06   42.48
  -7   1  -4    1.60    3.37
   7  -1   4    2.27   10.07
   7  -1   4  -19.10   13.72
  -7   1  -5  162.22   27.15
  -7   1  -5  129.10   37.88
   7  -1   5  155.01   32.82
   7  -1   5  215.67   59.63
  -7   1  -5  141.75   16.22
  -7   1  -6  135.79   21.83
  -7   1  -6  145.32   23.21
  -7   1  -6  167.90   39.47
   7  -1   6  111.65   25.46
   7  -1   6  147.39   45.53
  -7   1  -6  153.67   17.48
  -7   1  -7   34.09   11.07
  -7   1  -7   33.29   11.87
  -7   1  -7   38.10   16.62
   7  -1   7   27.37   16.97
   7  -1   7   43.42   26.21
  -7   1  -7   27.72    9.33
  -7   1  -8   92.18   14.46
  -7   1  -8  107.23   16.66
  -7   1  -8  117.79   27.93
   7  -1   8   68.43   18.67
   7  -1   8  103.92   31.08
  -7   1  -8  127.50   20.75
  -7   1  -9   83.94   13.15
  -7   1  -9   70.16   12.90
  -7   1  -9   66.20   14.45
  -7   1 -10  189.18   19.26
  -7   1 -10  186.75   18.83
  -7   1 -11  489.75   31.22
  -7   1 -12    2.43    3.59
  -7   1 -12    2.34    2.01
  -7   1 -12    2.59    4.48
  -7   1 -13   86.03   11.93
  -7   1 -13   80.73   11.50
  -7   1 -13   74.59   10.04
  -7   1 -13   71.77   10.58
  -7   1 -13   73.51   11.01
  -7   1 -14    5.37    1.98
  -7   1 -14    5.36    3.96
  -7   1 -14    2.22    3.28
  -7   1 -14    3.59    2.05
  -7   1 -14    4.67    1.59
  -7   1 -15   15.68    3.98
  -7   1 -15   13.57    3.56
  -7   1 -16  183.15   11.36
  -7   1 -16  171.37   11.18
   7   0 -11   94.60    7.95
   7   0 -10  178.67   14.00
   7   0 -10  161.62   13.98
   7   0 -10  166.48   13.48
   7   0  -9  142.84   15.67
   7   0  -9  164.44   16.97
   7   0  -9  146.23   14.94
   7   0  -9  150.14   14.77
   7   0  -8    5.79    3.18
   7   0  -8   23.68    8.36
   7   0  -8   18.26    6.69
   7   0  -8   18.42    6.58
   7   0  -7   12.69    8.36
   7   0  -7    4.40    3.62
   7   0  -7   13.08    5.14
   7   0  -6   26.18    7.60
   7   0  -6   22.28    7.14
   7   0  -6    8.98    5.14
   7   0  -5 1101.41   57.95
   7   0  -5 1268.29   67.89
   7   0  -5 1110.13   68.23
   7   0  -4  494.30   36.58
   7   0  -4  524.72   41.66
   7   0  -4  501.54   42.82
   7   0  -3  442.75   34.72
   7   0  -3  470.22   38.66
   7   0  -3  339.04   36.12
  -7   0   3  412.46   31.88
   7   0  -3  430.79   36.69
   7   0  -3  492.77   43.49
   7   0  -2  108.31   15.99
  -7   0   2   91.33   14.58
   7   0  -2   91.76   17.88
   7   0  -2  109.08   28.70
   7   0  -1  613.70   41.06
   7   0  -1  639.40   52.50
  -7   0   1  652.96   47.14
  -7   0   1  654.50   72.83
   7   0  -1  673.56   79.31
  -7   0   0    3.15    5.32
  -7   0   0    2.67   12.82
  -7   0  -1  221.43   30.52
  -7   0  -1  177.44   41.09
  -7   0  -2  908.79   65.08
  -7   0  -2  867.20   97.61
  -7   0  -2  977.18   38.96
   7   0   2 1016.95  103.36
  -7   0  -3 2818.45  131.13
  -7   0  -3 2653.23  185.38
  -7   0  -3 2939.70   93.71
   7   0   4  152.51   42.70
  -7   0  -4  148.87   14.46
  -7   0  -5   32.66   10.93
  -7   0  -5    5.75   17.59
  -7   0  -5   11.90    3.62
   7   0   5   15.51   15.46
  -7   0  -6  104.13   18.34
  -7   0  -6   79.41   18.02
  -7   0  -6   70.04   23.57
  -7   0  -6   98.99   14.25
   7   0   6   93.14   30.50
  -7   0  -7  145.00   20.61
  -7   0  -7  133.91   22.28
  -7   0  -7  135.43   31.34
   7   0   7  126.04   23.71
   7   0   7  174.15   42.02
  -7   0  -7  183.69   22.40
   7   0   8  901.88   64.89
  -7   0  -8  831.13   47.31
  -7   0  -8  934.01   52.29
  -7   0  -8  912.65   64.94
   7   0   8 1027.77   93.83
  -7   0  -8  926.91   55.42
  -7   0  -9  574.48   37.97
  -7   0  -9  673.79   39.94
  -7   0 -10  543.41   40.27
  -7   0 -10  553.07   36.82
  -7   0 -11  661.94   42.08
  -7   0 -11  698.10   41.00
  -7   0 -12   60.70   10.90
  -7   0 -12   52.89    9.64
  -7   0 -12   52.77    8.13
  -7   0 -12   52.11    9.88
  -7   0 -12   54.76    9.87
  -7   0 -13   10.92    4.74
  -7   0 -13    8.25    3.35
  -7   0 -13    4.33    3.93
  -7   0 -13    5.67    3.96
  -7   0 -13   11.65    4.57
  -7   0 -14   25.41    5.65
  -7   0 -14   35.17    6.95
  -7   0 -14   28.30    5.99
  -7   0 -14   31.85    6.90
  -7   0 -15   10.19    3.27
  -7   0 -15    8.29    2.98
  -7   0 -15    9.12    2.77
  -7   0 -15    9.44    3.62
  -7   0 -16  316.35   16.30
  -7   0 -16  294.02   16.41
  -7   0 -17  111.14    7.93
  -7   0 -17  106.39    6.72
   7   1 -11   33.60    4.88
   7   1 -11   35.37    5.23
   7   1 -10  141.90   13.21
   7   1  -9  118.25   13.57
   7   1  -9  133.68   15.99
   7   1  -9  145.89   16.73
   7   1  -8    8.68    4.79
   7   1  -8    2.82    2.78
   7   1  -8    3.18    3.92
   7   1  -8    6.99    5.02
   7   1  -7    8.75    4.41
   7   1  -7    2.32    2.66
   7   1  -6   -1.78    6.66
   7   1  -6    0.64    2.31
   7   1  -6   -4.96    5.62
   7   1  -5  698.47   43.45
   7   1  -5  731.22   50.27
   7   1  -5  631.97   49.69
   7   1  -4  226.89   24.26
   7   1  -4  198.71   25.57
   7   1  -4  206.45   26.37
   7   1  -3   54.98   12.25
  -7  -1   3   63.17   10.96
   7   1  -3   47.60   11.94
   7   1  -3   48.93   10.57
   7   1  -3   88.45   28.79
  -7  -1   3   69.57   18.02
   7   1  -2  206.79   23.59
  -7  -1   2  207.00   22.69
   7   1  -2  202.28   23.35
   7   1  -2  204.48   39.34
   7   1  -1  472.25   37.45
  -7  -1   1  604.80   44.59
   7   1  -1  526.88   61.62
  -7  -1   0   61.48   14.38
   7   1   0   62.61   21.62
  -7  -1  -1   62.05   16.09
  -7  -1  -1   48.52   22.99
  -7  -1  -2  457.19   42.86
  -7  -1  -2  412.56   61.89
  -7  -1  -2  455.45   23.94
  -7  -1  -3 1879.96   99.61
  -7  -1  -3 1801.55  145.41
  -7  -1  -3 1896.36   66.39
  -7  -1  -4   55.64    8.46
  -7  -1  -5   13.10   10.58
  -7  -1  -5    2.76   13.66
  -7  -1  -5    2.90    2.89
  -7  -1  -6   31.93    8.23
  -7  -1  -6   33.15   11.59
  -7  -1  -6   28.82    8.65
  -7  -1  -7  127.33   18.05
  -7  -1  -7  109.87   21.23
  -7  -1  -7  123.36   16.03
  -7  -1  -8  666.94   41.38
  -7  -1  -8  616.77   53.23
  -7  -1  -8  532.25   38.22
  -7  -1  -9  308.85   27.24
  -7  -1  -9  274.66   23.67
  -7  -1  -9  313.07   37.05
   7   1   9  306.22   45.58
  -7  -1  -9  217.48   23.19
  -7  -1  -9  265.76   25.55
  -7  -1 -10  409.13   38.94
  -7  -1 -10  362.65   30.34
  -7  -1 -10  435.12   28.72
  -7  -1 -10  352.93   30.09
  -7  -1 -11  176.86   20.05
  -7  -1 -11  174.78   17.02
  -7  -1 -11  192.20   21.41
  -7  -1 -12   24.32    7.28
  -7  -1 -12   35.60    8.68
  -7  -1 -12   19.27    5.37
  -7  -1 -12   24.27    8.58
  -7  -1 -12   22.98    6.13
  -7  -1 -13   16.49    5.57
  -7  -1 -13   23.88    6.87
  -7  -1 -13   19.96    4.86
  -7  -1 -13   14.78    5.16
  -7  -1 -14    1.53    1.25
  -7  -1 -14   -0.47    2.33
  -7  -1 -14   -0.42    1.88
  -7  -1 -15    5.22    2.85
  -7  -1 -15    5.48    2.27
  -7  -1 -15    3.25    1.57
  -7  -1 -15    5.37    1.66
  -7  -1 -16  218.65   13.10
  -7  -1 -16  192.58   13.02
  -7  -1 -17   25.57    3.76
  -7  -1 -17   27.72    3.93
   7   2 -11    8.82    3.33
   7   2 -11    7.76    2.88
   7   2 -10   82.22    9.91
   7   2  -9    9.85    2.26
   7   2  -9    9.77    4.01
   7   2  -8  226.46   20.67
   7   2  -8  234.03   25.61
   7   2  -7  216.86   21.63
   7   2  -6   11.44    5.71
   7   2  -6    5.29    3.99
   7   2  -6   21.42   11.75
   7   2  -5  322.91   28.52
   7   2  -5  323.32   32.29
   7   2  -5  308.53   32.78
   7   2  -4   85.10   13.98
   7   2  -4   55.11   14.29
   7   2  -4   62.34   21.13
   7   2  -3   18.55    8.18
  -7  -2   3   15.39    5.05
   7   2  -3   21.60    7.87
  -7  -2   3   20.12    9.13
   7   2  -2  612.89   42.12
  -7  -2   2  571.66   39.12
   7   2  -2  539.37   40.66
  -7  -2   2  596.63   56.01
   7   2  -2  517.99   57.64
  -7  -2   1   19.90    7.52
   7   2  -1   33.35    9.95
   7   2  -1   13.77   12.55
  -7  -2   1   20.02   12.56
  -7  -2   0 1252.94   70.01
  -7  -2  -1  121.32   21.63
  -7  -2  -2   15.59    9.33
  -7  -2  -2   10.20    3.52
  -7  -2  -3  411.03   40.55
  -7  -2  -3  354.41   22.22
  -7  -2  -4    3.90    3.61
  -7  -2  -5  848.85   57.96
  -7  -2  -5  794.58   40.88
  -7  -2  -6  777.80   50.86
  -7  -2  -6  697.70   34.27
  -7  -2  -6  654.28   56.76
  -7  -2  -6  748.57   42.52
  -7  -2  -7   76.08   15.23
  -7  -2  -7   54.93    8.72
  -7  -2  -7   56.26   16.40
  -7  -2  -7   61.22   11.19
  -7  -2  -7   70.92   21.03
  -7  -2  -8  469.51   33.02
  -7  -2  -8  464.24   27.61
  -7  -2  -8  498.32   49.47
  -7  -2  -8  471.64   47.99
  -7  -2  -8  400.76   31.20
  -7  -2  -9   15.99    6.88
  -7  -2  -9   11.88    5.48
  -7  -2  -9   20.01    9.97
  -7  -2 -10   55.38   13.52
  -7  -2 -10   47.36   10.15
  -7  -2 -10   38.75    9.58
  -7  -2 -11  203.92   20.60
  -7  -2 -11  191.46   19.11
  -7  -2 -11  186.11   22.11
  -7  -2 -12   35.06    8.94
  -7  -2 -12   27.89    7.07
  -7  -2 -12   28.83    8.38
  -7  -2 -12   27.93    8.75
  -7  -2 -12   27.46    6.40
  -7  -2 -13  440.38   28.29
  -7  -2 -13  395.75   27.15
  -7  -2 -13  475.90   33.07
  -7  -2 -13  438.21   30.72
  -7  -2 -13  421.88   28.37
  -7  -2 -14  133.73   13.23
  -7  -2 -14  130.11   15.53
  -7  -2 -14  116.19   12.88
  -7  -2 -14  118.76   13.57
  -7  -2 -15   44.52    6.56
  -7  -2 -15   35.92    6.12
  -7  -2 -16   77.89    7.31
  -7  -2 -16   88.67    9.55
  -7  -2 -17    5.85    1.84
   7   3 -11  130.01   11.14
   7   3 -11  127.84   10.21
   7   3 -11  133.83   11.02
   7   3 -10   54.24    7.89
   7   3 -10   50.69    8.41
   7   3  -9   64.85   10.43
   7   3  -9   67.06   12.56
   7   3  -8  569.17   36.20
   7   3  -8  627.57   39.63
   7   3  -8  672.93   45.60
   7   3  -8  647.48   41.87
   7   3  -7  428.10   32.09
   7   3  -7  411.09   35.23
   7   3  -7  494.68   39.74
   7   3  -6   79.04   13.58
   7   3  -6   69.90   15.93
   7   3  -5   32.21    9.74
   7   3  -5   10.67    8.38
   7   3  -4  536.52   37.39
  -7  -3   4  464.66   29.87
   7   3  -4  512.84   41.14
   7   3  -4  478.09   39.19
   7   3  -4  522.37   55.50
  -7  -3   3    2.75    3.40
   7   3  -3    9.86    5.33
  -7  -3   3    5.33    3.97
   7   3  -3    4.26    3.44
   7   3  -3    9.95    4.86
  -7  -3   3    1.25    6.57
   7   3  -3   16.51    6.32
   7   3  -2  921.39   52.44
  -7  -3   2  900.59   42.75
  -7  -3   2  837.40   49.37
   7   3  -2  809.86   51.95
  -7  -3   2  842.98   68.06
   7   3  -2  815.62   70.86
  -7  -3   1  470.63   37.66
   7   3  -1  492.31   37.87
  -7  -3   1  471.70   52.89
   7   3  -1  453.02   60.02
  -7  -3   0 1538.25   78.47
  -7  -3   0 1372.73   59.50
   7   3   0 1727.30   76.11
  -7  -3   0 1596.30  108.67
   7   3   0 1898.53  136.35
  -7  -3  -1   90.86   19.87
  -7  -3  -1   66.97    9.40
   7   3   1  103.71   17.90
   7   3   1   86.28   24.91
  -7  -3  -1   93.96   27.81
  -7  -3  -2  500.67   44.68
  -7  -3  -2  561.13   66.15
  -7  -3  -2  541.20   27.64
  -7  -3  -3   47.24   14.35
  -7  -3  -3   40.56    7.28
   7   3   3    3.85   20.08
  -7  -3  -3   61.16   25.22
  -7  -3  -4   60.17    8.79
   7   3   4   42.88   19.03
  -7  -3  -5 1139.41   66.19
  -7  -3  -5 1098.68   75.28
  -7  -3  -5 1180.00   52.15
  -7  -3  -5 1074.06   91.35
   7   3   5 1113.81  113.17
  -7  -3  -6 1935.76   86.75
  -7  -3  -6 1812.67   68.93
  -7  -3  -6 1895.14  104.91
  -7  -3  -6 2103.32   78.98
  -7  -3  -6 1927.30  121.02
   7   3   6 2012.96  145.06
  -7  -3  -7  391.40   32.06
  -7  -3  -7  391.41   24.75
  -7  -3  -7  423.43   45.67
  -7  -3  -7  417.87   30.65
  -7  -3  -7  437.56   48.37
  -7  -3  -8  335.69   27.04
  -7  -3  -8  390.54   25.83
  -7  -3  -8  402.65   43.46
  -7  -3  -9  242.24   22.22
  -7  -3  -9  270.86   22.90
  -7  -3  -9  268.46   32.80
  -7  -3 -10   83.91   14.84
  -7  -3 -10   89.79   13.61
  -7  -3 -10   86.11   13.78
  -7  -3 -10   88.23   17.19
  -7  -3 -11  159.67   18.13
  -7  -3 -11  135.40   17.93
  -7  -3 -11  192.79   19.71
  -7  -3 -11  139.82   17.06
  -7  -3 -12   66.04   10.86
  -7  -3 -12   68.23   12.43
  -7  -3 -12   63.20   11.86
  -7  -3 -12   52.43   10.68
  -7  -3 -12   57.05    9.93
  -7  -3 -13  859.79   41.67
  -7  -3 -13  812.53   44.00
  -7  -3 -13  894.53   49.53
  -7  -3 -13  881.33   47.21
  -7  -3 -13  860.55   43.58
  -7  -3 -14  160.17   14.50
  -7  -3 -14  157.46   16.06
  -7  -3 -14  182.08   18.96
  -7  -3 -14  141.73   15.17
  -7  -3 -14  159.75   15.09
  -7  -3 -15   68.83    7.96
  -7  -3 -15   91.86   11.62
  -7  -3 -15   64.88    8.72
  -7  -3 -15   61.38    8.92
  -7  -3 -15   60.25    8.02
  -7  -3 -16    8.52    2.80
  -7  -3 -17  110.20    8.74
  -7  -3 -17  109.40    8.49
   7   4 -11   50.03    6.84
   7   4 -11   47.78    5.57
   7   4 -11   51.81    6.44
   7   4 -10   57.40    8.49
   7   4 -10   53.07    7.39
   7   4 -10   59.69    8.50
   7   4  -9   22.14    5.16
   7   4  -9   17.16    5.88
   7   4  -8  429.24   32.02
   7   4  -8  512.40   36.88
   7   4  -8  485.56   33.79
   7   4  -7  353.93   29.09
  -7  -4   7  344.75   25.70
   7   4  -7  341.58   30.66
   7   4  -7  355.26   35.22
   7   4  -7  393.53   32.53
   7   4  -6    8.86    5.27
  -7  -4   6   10.52    3.42
   7   4  -6   11.79    3.78
   7   4  -6    8.66    5.72
   7   4  -6    4.40    5.55
  -7  -4   5   73.04   12.62
   7   4  -5  109.91   17.15
   7   4  -5   99.15   18.68
   7   4  -5   98.50   18.23
   7   4  -4  274.61   26.15
  -7  -4   4  293.46   25.21
   7   4  -4  325.82   33.61
   7   4  -4  218.34   26.98
   7   4  -4  246.25   35.12
  -7  -4   3   15.06    7.22
   7   4  -3   15.84    7.88
  -7  -4   3   18.33    5.84
  -7  -4   3   10.66    4.04
   7   4  -3   14.35    9.34
   7   4  -2  736.75   45.79
  -7  -4   2  805.46   42.29
  -7  -4   2  734.85   46.88
   7   4  -2  838.98   54.21
  -7  -4   2  740.26   65.00
   7   4  -2  702.22   68.96
   7   4  -1  179.83   21.14
  -7  -4   1  179.60   16.74
  -7  -4   1  159.87   29.50
   7   4  -1  167.62   35.56
  -7  -4   1  152.88   20.90
   7   4  -1  152.66   21.31
  -7  -4   0 1454.75  100.48
   7   4   0 1661.43  125.78
  -7  -4   0 1470.72   73.90
  -7  -4   0 1323.19   63.38
   7   4   0 1454.24   72.22
  -7  -4  -1  102.93   26.19
   7   4   1   96.55   32.14
  -7  -4  -1   94.16   21.36
   7   4   1  100.64   17.35
  -7  -4  -2  121.25   30.26
  -7  -4  -2  126.09   20.74
  -7  -4  -2  107.75   14.09
  -7  -4  -3   77.57   24.27
  -7  -4  -3  109.47   12.36
   7   4   3   96.25   38.56
  -7  -4  -3   83.05   18.54
  -7  -4  -4    6.44    4.38
   7   4   4   -3.52   17.72
  -7  -4  -5 1007.94   47.00
  -7  -4  -5  797.31   74.47
   7   4   5  948.80  102.77
  -7  -4  -5  850.78   55.51
  -7  -4  -6 1340.82   58.87
  -7  -4  -6 1258.01   90.22
  -7  -4  -6 1188.22   63.73
  -7  -4  -6 1193.74   51.92
  -7  -4  -7  234.81   34.62
   7   4   7  288.24   52.45
  -7  -4  -7  218.88   22.89
  -7  -4  -7  236.58   19.09
  -7  -4  -7  224.28   34.51
  -7  -4  -7  261.44   20.04
  -7  -4  -8  374.35   42.73
   7   4   8  395.71   53.88
  -7  -4  -8  371.41   29.94
  -7  -4  -8  424.46   28.60
  -7  -4  -8  452.90   30.04
  -7  -4  -9  112.22   14.71
  -7  -4  -9  116.74   14.85
  -7  -4  -9   99.68   14.50
  -7  -4  -9  110.22   22.63
  -7  -4 -10   11.90   11.01
  -7  -4 -10    0.59    3.95
  -7  -4 -10    1.14    3.66
  -7  -4 -10    4.82    4.26
  -7  -4 -11  173.86   21.09
  -7  -4 -11  222.07   21.23
  -7  -4 -11  162.08   19.74
  -7  -4 -11  218.02   20.47
  -7  -4 -12   44.75    8.54
  -7  -4 -12   39.98    9.23
  -7  -4 -12   49.09   10.52
  -7  -4 -12   46.99    8.73
  -7  -4 -13  682.76   35.72
  -7  -4 -13  717.84   41.77
  -7  -4 -13  769.90   42.49
  -7  -4 -13  744.69   38.55
  -7  -4 -14  173.27   14.28
  -7  -4 -14  174.77   17.81
  -7  -4 -14  146.91   15.45
  -7  -4 -14  159.17   14.42
  -7  -4 -15   57.44    7.21
  -7  -4 -15   52.37    8.54
  -7  -4 -15   51.21    7.56
  -7  -4 -16   44.88    6.16
  -7  -4 -17   26.57    4.26
  -7  -4 -17   35.35    4.65
   7   5 -11    8.17    2.61
   7   5 -11    8.38    2.47
   7   5 -11    7.90    2.44
   7   5 -10  104.09   11.31
   7   5 -10   87.39    9.14
   7   5 -10  103.02   10.62
   7   5  -9   73.31   10.84
  -7  -5   9   73.62    9.37
   7   5  -9   77.51   10.69
   7   5  -9   71.99   10.53
   7   5  -8   35.84    7.51
  -7  -5   8   39.98    7.87
   7   5  -8   44.66   10.36
   7   5  -7   30.49    8.52
  -7  -5   7   21.94    7.24
   7   5  -7   16.93    5.76
   7   5  -7   37.00   11.62
   7   5  -7   26.67    9.56
   7   5  -7   23.22    8.03
  -7  -5   6    0.70    4.26
   7   5  -6   -0.67    2.26
   7   5  -6   -1.11    6.13
   7   5  -6    0.73    4.87
   7   5  -5  462.12   34.89
  -7  -5   5  465.93   37.07
   7   5  -5  489.20   45.77
   7   5  -5  551.52   41.36
  -7  -5   4   59.20    9.82
  -7  -5   4   76.11   16.89
   7   5  -4   60.48   12.28
   7   5  -4   50.70   14.48
   7   5  -4   57.56   16.33
  -7  -5   3   14.16    4.48
  -7  -5   3   33.69    9.67
   7   5  -3   25.37    8.45
   7   5  -3   31.97   12.25
  -7  -5   3   15.64    6.14
  -7  -5   3   16.58    9.16
   7   5  -3   28.01   11.48
   7   5  -2  354.61   30.54
  -7  -5   2  384.77   30.53
  -7  -5   2  369.54   28.75
  -7  -5   2  349.53   46.62
  -7  -5   2  390.22   31.77
   7   5  -2  263.40   41.56
   7   5  -1  186.87   21.32
  -7  -5   1  171.48   19.43
  -7  -5   1  164.92   16.88
  -7  -5   1  154.54   22.38
  -7  -5   1  190.34   34.41
   7   5  -1  171.61   36.00
  -7  -5   0  311.66   25.09
  -7  -5   0  276.82   20.76
  -7  -5   0  263.15   28.95
  -7  -5   0  292.12   28.60
  -7  -5   0  275.06   42.31
   7   5   0  383.46   59.79
  -7  -5  -1   18.09    6.81
  -7  -5  -1   24.14   15.79
   7   5   1   53.25   23.43
  -7  -5  -1   32.44   11.92
  -7  -5  -1   29.95    9.20
  -7  -5  -2  245.59   44.66
  -7  -5  -2  208.08   28.05
  -7  -5  -2  233.71   24.64
  -7  -5  -3 1301.43  102.67
   7   5   3 1406.49  153.02
  -7  -5  -3 1163.96   71.72
  -7  -5  -3 1350.88   65.36
   7   5   4   46.91   30.37
  -7  -5  -4   41.27   18.25
  -7  -5  -5  134.56   15.27
  -7  -5  -5  100.36   27.22
   7   5   5   88.69   30.78
  -7  -5  -5  126.03   20.30
  -7  -5  -5  110.44   25.25
  -7  -5  -6   59.54   20.72
   7   5   6   53.27   21.52
  -7  -5  -6   46.28   11.68
  -7  -5  -6   53.28   11.76
  -7  -5  -6   57.19    9.60
  -7  -5  -7    7.69    3.79
   7   5   7   14.24   13.78
  -7  -5  -7    8.69    6.79
  -7  -5  -7   12.45    5.48
  -7  -5  -7    9.23    5.32
  -7  -5  -8  458.97   32.26
  -7  -5  -8  481.97   49.21
  -7  -5  -8  500.10   33.21
   7   5   8  479.44   61.27
  -7  -5  -8  509.02   32.35
  -7  -5  -8  415.77   27.71
  -7  -5  -8  530.59   32.33
  -7  -5  -9   75.63   13.16
  -7  -5  -9   87.32   13.31
   7   5   9   96.19   25.11
  -7  -5  -9   77.41   20.04
  -7  -5  -9   79.83   13.34
  -7  -5  -9   68.50   11.32
  -7  -5  -9   67.75   10.40
  -7  -5 -10  305.64   25.33
  -7  -5 -10  342.15   39.87
  -7  -5 -10  359.14   30.40
  -7  -5 -10  308.12   23.02
  -7  -5 -10  326.68   24.36
  -7  -5 -11  204.14   19.82
  -7  -5 -11  190.61   22.49
  -7  -5 -11  218.28   23.59
  -7  -5 -11  211.33   19.66
  -7  -5 -12   -4.66    4.67
  -7  -5 -12   -2.06    4.22
  -7  -5 -12   -2.72    3.27
  -7  -5 -12    0.68    3.85
  -7  -5 -12   -0.90    2.88
  -7  -5 -13  148.77   13.87
  -7  -5 -13  104.54   14.96
  -7  -5 -13  153.35   18.05
  -7  -5 -13  123.17   13.09
  -7  -5 -14   26.13    5.32
  -7  -5 -14   21.56    6.55
  -7  -5 -14   22.29    6.42
  -7  -5 -14   19.29    4.62
  -7  -5 -15   13.72    5.05
  -7  -5 -15   17.18    4.21
  -7  -5 -15   11.92    3.56
  -7  -5 -16  164.02   12.79
  -7  -5 -16  177.38   13.87
  -7  -5 -16  150.55   11.10
  -7  -5 -17   16.16    2.98
  -7  -5 -17   18.96    3.60
   7   6 -11   91.86    8.30
   7   6 -10  151.14   13.28
  -7  -6  10  140.79   11.09
   7   6 -10  141.63   10.85
   7   6 -10  156.81   11.92
   7   6  -9  223.43   18.98
  -7  -6   9  193.28   15.82
   7   6  -9  201.03   16.27
   7   6  -9  194.36   15.73
   7   6  -8   41.28    9.09
  -7  -6   8   36.76    7.99
   7   6  -8   39.35    8.59
   7   6  -7   44.69   10.29
  -7  -6   7   45.24   10.52
   7   6  -7   44.40   13.37
   7   6  -7   43.04    9.35
  -7  -6   6    9.09    7.07
   7   6  -6    6.70    3.67
   7   6  -6   12.38    9.66
   7   6  -6   11.40    5.46
   7   6  -6   17.49    7.40
   7   6  -5 1215.09   60.90
   7   6  -5 1030.26   56.39
  -7  -6   5 1097.38   54.16
  -7  -6   5 1081.98   65.30
   7   6  -4  518.09   40.36
   7   6  -4  441.20   34.73
  -7  -6   4  469.64   35.14
  -7  -6   4  550.91   46.37
   7   6  -3  364.15   35.54
  -7  -6   3  342.76   29.42
  -7  -6   3  393.92   49.68
   7   6  -3  298.82   42.15
   7   6  -3  337.48   30.31
  -7  -6   3  347.91   31.22
  -7  -6   3  438.86   36.19
   7   6  -2   43.32   15.15
  -7  -6   2   35.57   12.69
   7   6  -2   34.73   11.70
  -7  -6   2   21.86   18.87
  -7  -6   2   45.20   14.43
   7   6  -2   35.03   13.69
   7   6  -1  728.05   54.29
  -7  -6   1  973.31   57.67
  -7  -6   1  896.68   84.24
   7   6  -1  860.07   86.26
   7   6  -1  833.96   48.02
  -7  -6   1  829.77   49.81
  -7  -6   1  859.15   44.39
  -7  -6   0    9.43    5.87
  -7  -6   0    2.01    7.46
   7   6   0    7.77    7.35
  -7  -6   0   17.45   18.12
  -7  -6   0    8.00   10.36
   7   6   0    3.20   15.48
  -7  -6   0   11.97    8.81
  -7  -6   0    2.90    6.16
  -7  -6  -1  145.60   17.79
  -7  -6  -1  127.85   13.86
  -7  -6  -1  128.10   31.52
  -7  -6  -1  132.81   20.27
  -7  -6  -1  122.59   20.26
  -7  -6  -2  813.76   41.58
  -7  -6  -2  685.73   77.32
  -7  -6  -2  690.01   55.65
  -7  -6  -2  742.07   50.64
  -7  -6  -2  764.55   51.08
  -7  -6  -3 2335.88  156.71
   7   6   3 3235.28  265.64
  -7  -6  -3 2203.95  114.88
  -7  -6  -3 2568.47  109.08
  -7  -6  -3 3029.82  144.78
  -7  -6  -3 2723.18  109.95
   7   6   4   80.91   37.26
  -7  -6  -4  140.72   34.04
  -7  -6  -5   21.02   12.86
   7   6   5   12.17    8.45
  -7  -6  -5   14.15    9.62
  -7  -6  -6  182.33   22.58
  -7  -6  -6  150.87   29.68
  -7  -6  -6  158.90   16.90
  -7  -6  -6  159.51   30.04
  -7  -6  -6  188.41   16.34
  -7  -6  -7  205.50   24.80
  -7  -6  -7  160.84   34.60
   7   6   7  228.32   46.03
  -7  -6  -7  223.07   22.21
  -7  -6  -7  213.30   18.05
  -7  -6  -7  173.14   19.87
  -7  -6  -7  189.28   18.77
  -7  -6  -8  644.73   38.89
  -7  -6  -8  765.09   44.96
  -7  -6  -8  705.77   65.45
   7   6   8  796.44   77.32
  -7  -6  -8  684.25   40.18
  -7  -6  -8  745.36   42.00
  -7  -6  -8  600.98   34.57
  -7  -6  -8  756.95   39.48
  -7  -6  -9  431.06   31.71
  -7  -6  -9  610.70   37.86
  -7  -6  -9  632.20   59.63
   7   6   9  558.43   59.44
  -7  -6  -9  519.55   36.48
  -7  -6  -9  564.48   35.58
  -7  -6  -9  469.44   29.60
  -7  -6  -9  521.35   30.39
  -7  -6  -9  569.87   35.84
  -7  -6 -10  612.45   36.84
  -7  -6 -10  663.22   44.47
  -7  -6 -10  705.87   39.62
  -7  -6 -10  645.24   40.38
  -7  -6 -10  604.33   34.13
  -7  -6 -10  659.78   35.01
  -7  -6 -11  405.10   27.66
  -7  -6 -11  318.82   31.03
  -7  -6 -11  435.86   32.48
  -7  -6 -11  377.40   25.87
  -7  -6 -11  377.53   24.86
  -7  -6 -12   56.87   11.55
  -7  -6 -12   41.03    9.99
  -7  -6 -12   37.93    9.46
  -7  -6 -12   66.30   11.81
  -7  -6 -12   47.88    7.72
  -7  -6 -13    2.97    2.88
  -7  -6 -13   -0.57    3.02
  -7  -6 -13    2.78    2.72
  -7  -6 -14   35.64    7.04
  -7  -6 -14   43.62    8.00
  -7  -6 -14   31.59    6.18
  -7  -6 -14   33.79    6.08
  -7  -6 -15    6.64    3.51
  -7  -6 -15    4.20    1.55
  -7  -6 -15    2.14    1.85
  -7  -6 -16  265.37   15.76
  -7  -6 -16  279.28   17.30
  -7  -6 -16  245.73   13.82
  -7  -6 -17    0.60    0.66
   7   7 -11   68.58    6.49
  -7  -7  11   73.58    5.92
   7   7 -10  156.05   10.60
   7   7 -10  159.78   13.00
  -7  -7  10  158.25   11.74
   7   7  -9   42.99    6.30
  -7  -7   9   36.59    6.14
   7   7  -9   38.12    7.33
   7   7  -9   51.03    6.89
   7   7  -8    3.05    2.05
   7   7  -8    6.09    4.15
  -7  -7   8    9.37    5.08
   7   7  -8    1.01    1.97
   7   7  -7    6.88    2.55
   7   7  -7    2.45    4.43
  -7  -7   7    5.15    2.60
   7   7  -6    3.73    5.84
  -7  -7   6    3.77    4.56
  -7  -7   6    1.75    4.26
   7   7  -5  883.09   50.79
   7   7  -5  885.29   51.62
  -7  -7   5 1039.56   53.45
  -7  -7   5 1069.45   72.76
   7   7  -4  154.53   21.52
   7   7  -4  194.39   22.92
   7   7  -4  188.68   22.02
  -7  -7   4  214.41   25.03
  -7  -7   4  205.03   31.25
   7   7  -3  289.41   28.17
  -7  -7   3  204.96   37.58
  -7  -7   3  246.90   26.62
   7   7  -3  226.09   37.38
   7   7  -3  220.66   23.87
  -7  -7   3  232.84   27.85
  -7  -7   3  297.32   30.43
  -7  -7   2   95.43   28.40
   7   7  -2   88.93   17.69
   7   7  -2   71.59   23.65
  -7  -7   2   72.38   18.03
  -7  -7   2   84.61   18.37
   7   7  -2   67.49   14.26
  -7  -7   2   94.98   18.36
   7   7  -1  168.32   20.54
  -7  -7   1  219.52   25.95
  -7  -7   1  190.03   19.84
  -7  -7   1  215.74   45.42
   7   7  -1  233.14   46.55
   7   7  -1  259.20   28.28
  -7  -7   1  228.70   28.27
  -7  -7   1  157.35   26.14
  -7  -7   1  234.69   28.57
  -7  -7   0   63.86   10.73
  -7  -7   0   74.31   13.97
   7   7   0   67.94   11.91
  -7  -7   0   95.26   17.16
  -7  -7   0   73.25   25.26
  -7  -7   0   83.33   17.89
  -7  -7   0   69.47   21.91
  -7  -7   0   77.26   17.93
  -7  -7  -1  178.12   20.07
  -7  -7  -1  217.64   28.51
  -7  -7  -1  148.37   35.78
  -7  -7  -1  161.93   24.33
  -7  -7  -1  207.56   36.42
  -7  -7  -1  232.66   30.03
  -7  -7  -2  463.45   28.13
  -7  -7  -2  450.53   44.30
  -7  -7  -2  353.57   59.72
  -7  -7  -2  485.02   42.11
  -7  -7  -2  514.10   55.26
  -7  -7  -2  457.40   42.16
  -7  -7  -3 1434.30   63.86
  -7  -7  -3 1852.08   65.82
  -7  -7  -3 1487.13   92.04
  -7  -7  -3 1512.60  130.29
  -7  -7  -3 1572.67   88.38
  -7  -7  -3 1739.89  107.62
  -7  -7  -3 1673.79   88.50
  -7  -7  -4  127.46   30.15
  -7  -7  -4  104.81   19.98
  -7  -7  -5   72.07   18.45
  -7  -7  -5   57.68   24.28
  -7  -7  -5   85.51   14.07
  -7  -7  -5   68.25   23.64
  -7  -7  -6    5.39    7.02
   7   7   6   -3.94   12.38
  -7  -7  -6   -2.28    8.19
  -7  -7  -6    6.73    5.71
  -7  -7  -6   10.73    6.50
  -7  -7  -7   56.45   23.29
  -7  -7  -7   53.14   13.15
   7   7   7   52.81   21.90
  -7  -7  -7   72.03   10.22
  -7  -7  -7   36.31    8.67
  -7  -7  -7   47.50    9.32
  -7  -7  -8  367.72   49.83
  -7  -7  -8  418.35   33.80
   7   7   8  353.32   51.30
  -7  -7  -8  357.27   28.45
  -7  -7  -8  391.53   31.02
  -7  -7  -8  271.20   21.92
  -7  -7  -8  343.78   24.87
  -7  -7  -9  336.14   29.24
  -7  -7  -9  316.19   44.81
   7   7   9  276.57   41.09
  -7  -7  -9  308.88   28.42
  -7  -7  -9  322.26   26.64
  -7  -7  -9  326.76   27.48
  -7  -7  -9  231.53   20.56
  -7  -7  -9  326.61   26.09
  -7  -7 -10  471.00   35.17
  -7  -7 -10  422.91   36.36
  -7  -7 -10  416.11   29.52
  -7  -7 -10  466.86   32.99
  -7  -7 -10  343.99   25.34
  -7  -7 -11  556.82   37.74
  -7  -7 -11  445.18   37.65
  -7  -7 -11  522.53   32.03
  -7  -7 -11  615.80   36.98
  -7  -7 -11  509.06   31.54
  -7  -7 -12   13.37    3.72
  -7  -7 -12   25.58    8.43
  -7  -7 -12   15.73    4.59
  -7  -7 -12   20.67    5.16
  -7  -7 -13   37.68    8.72
  -7  -7 -13   48.14    8.91
  -7  -7 -13   38.20    7.51
  -7  -7 -13   33.20    5.66
  -7  -7 -14    5.29    1.80
  -7  -7 -14    8.10    2.12
  -7  -7 -15   43.32    6.67
  -7  -7 -15   44.75    6.94
  -7  -7 -16  269.56   12.98
  -7  -7 -16  287.77   14.72
   7   8 -10   34.27    5.27
  -7  -8  10   35.45    5.25
  -7  -8   9    7.00    3.24
   7   8  -9    8.47    3.85
   7   8  -8  108.96   13.28
   7   8  -8  108.26   11.14
  -7  -8   8   85.44   11.54
   7   8  -8  102.60    9.91
  -7  -8   7   57.75    9.32
   7   8  -7   86.76   13.41
  -7  -8   7   88.79   14.61
   7   8  -7   77.36   11.99
   7   8  -7   51.71    8.36
  -7  -8   6   22.31    9.57
  -7  -8   6   20.45    7.20
   7   8  -6   28.87    6.07
   7   8  -5  142.14   18.78
  -7  -8   5  170.87   21.55
  -7  -8   5  137.30   23.90
   7   8  -5  149.02   16.08
  -7  -8   4   79.73   16.87
   7   8  -4  111.05   16.37
  -7  -8   4  101.48   17.57
  -7  -8   3   10.74    6.96
  -7  -8   3   -5.78    4.46
   7   8  -3    2.81    5.96
  -7  -8   3    0.97    5.82
  -7  -8   3   -7.92   20.57
   7   8  -3    1.83    7.30
  -7  -8   3   20.52   12.15
   7   8  -2  263.72   25.50
  -7  -8   2  289.63   33.30
  -7  -8   2  292.79   28.06
  -7  -8   2  273.12   33.49
   7   8  -2  288.67   48.37
  -7  -8   2  313.36   55.12
  -7  -8   2  333.76   42.55
  -7  -8   2  308.75   33.20
  -7  -8   1  101.50   19.46
   7   8  -1   97.23   15.55
  -7  -8   1  130.89   38.55
  -7  -8   1  119.62   21.88
  -7  -8   1   76.98   19.57
  -7  -8   1  123.34   29.27
  -7  -8   1  119.82   22.96
  -7  -8   0  907.05   56.43
  -7  -8   0  916.24   65.60
  -7  -8   0  859.37  100.31
  -7  -8   0  814.26   64.83
  -7  -8   0  860.10   85.60
  -7  -8   0 1012.01   71.15
  -7  -8  -1    6.82   24.66
  -7  -8  -1   79.21   27.61
  -7  -8  -1   95.32   21.61
  -7  -8  -1   56.88   26.12
  -7  -8  -1  105.19   26.96
  -7  -8  -2   79.34   13.42
  -7  -8  -2   83.92   12.07
  -7  -8  -2   28.47   21.19
  -7  -8  -2   98.55   23.32
  -7  -8  -2   94.44   20.40
  -7  -8  -2   92.19   26.43
  -7  -8  -2  116.80   24.07
  -7  -8  -3   63.15   10.90
  -7  -8  -3   90.54   11.75
  -7  -8  -3   53.50   29.52
  -7  -8  -3   72.35   19.43
  -7  -8  -3   53.07   11.52
  -7  -8  -3   68.49   16.88
  -7  -8  -3   75.57   22.57
  -7  -8  -3   54.08   16.68
  -7  -8  -4  109.49   13.28
  -7  -8  -4  111.09   15.36
  -7  -8  -4  114.66   18.76
  -7  -8  -5  596.06   50.45
  -7  -8  -5  496.87   73.78
  -7  -8  -5  559.47   35.15
  -7  -8  -5  417.17   27.28
  -7  -8  -6  708.13   55.10
  -7  -8  -6  718.51   87.39
  -7  -8  -6  698.43   44.29
  -7  -8  -6  543.16   41.55
  -7  -8  -6  615.03   35.26
  -7  -8  -7   20.50   19.35
  -7  -8  -7   34.03   14.38
  -7  -8  -7   33.78    9.93
  -7  -8  -7   24.51    6.58
  -7  -8  -7   33.71    9.38
  -7  -8  -7   31.94    8.10
  -7  -8  -8   74.73   25.85
   7   8   8   76.76   25.48
  -7  -8  -8   80.18   16.98
  -7  -8  -8   57.62   12.87
  -7  -8  -8   64.52   14.25
  -7  -8  -8   68.58   12.24
  -7  -8  -9    6.89    3.76
   7   8   9    3.82    8.34
  -7  -8  -9   10.07    4.08
  -7  -8  -9    9.25    4.89
  -7  -8  -9   10.41    4.75
  -7  -8 -10   44.03   11.23
  -7  -8 -10   28.47   12.06
  -7  -8 -10   29.36    7.43
  -7  -8 -10   22.42    6.89
  -7  -8 -10   23.02    6.29
  -7  -8 -11  155.27   18.14
  -7  -8 -11  155.22   21.85
  -7  -8 -11  150.51   16.76
  -7  -8 -11  152.13   15.48
  -7  -8 -11  173.58   17.55
  -7  -8 -12    8.22    6.16
  -7  -8 -12    1.46    3.58
  -7  -8 -12    6.63    3.73
  -7  -8 -12    6.29    3.25
  -7  -8 -12    8.64    3.96
  -7  -8 -13  266.72   21.02
  -7  -8 -14    9.63    3.42
  -7  -8 -14    8.80    2.32
  -7  -8 -15   37.09    6.17
  -7  -8 -15   23.55    4.21
  -7  -8 -15   27.51    5.27
  -7  -8 -16   67.57    6.99
  -7  -8 -16   68.70    6.56
  -7  -9   9   13.52    4.50
   7   9  -9   21.59    4.68
   7   9  -8  528.48   29.47
  -7  -9   8  496.72   29.04
   7   9  -7  324.62   25.58
  -7  -9   7  317.00   22.64
   7   9  -6   17.01    4.95
  -7  -9   6   20.10   11.79
  -7  -9   6   18.66    7.74
  -7  -9   5   -0.85    7.83
  -7  -9   5    1.31    5.95
  -7  -9   5   -4.16    9.05
   7   9  -4  348.09   29.95
  -7  -9   4  343.52   32.55
  -7  -9   4  350.83   33.40
  -7  -9   4  322.78   48.53
  -7  -9   3   12.01   15.33
   7   9  -3    7.02    9.69
  -7  -9   3    9.57   15.91
   7   9  -3   13.07   11.99
  -7  -9   3   26.47   15.45
   7   9  -2  880.04   51.03
  -7  -9   2  923.42   69.25
  -7  -9   2  909.64   69.02
  -7  -9   2  923.37  109.43
  -7  -9   2 1059.21   81.96
  -7  -9   2 1015.89   65.75
   7   9  -1  482.14   35.90
  -7  -9   1  599.64   49.07
  -7  -9   1  501.26   35.48
  -7  -9   1  539.46   52.33
  -7  -9   1  555.27   87.33
  -7  -9   1  512.76   53.64
  -7  -9   1  656.32   57.04
  -7  -9   0 1589.56   80.53
  -7  -9   0 1437.00   66.65
  -7  -9   0 1783.79  105.03
  -7  -9   0 1513.69  152.84
  -7  -9   0 1520.42   96.44
  -7  -9  -1  155.60   40.07
  -7  -9  -1   81.12   55.67
  -7  -9  -1  133.31   29.54
  -7  -9  -1  212.60   41.61
  -7  -9  -2  214.72   21.43
  -7  -9  -2  218.06   18.98
  -7  -9  -2  210.95   56.86
  -7  -9  -2  237.77   36.35
  -7  -9  -2  207.30   30.80
  -7  -9  -2  243.14   23.93
  -7  -9  -2  324.25   43.35
  -7  -9  -3   10.76    3.94
  -7  -9  -3    6.20    4.37
  -7  -9  -3   45.12   29.35
  -7  -9  -3   18.78   13.79
  -7  -9  -3   13.57    6.60
  -7  -9  -3   15.65    9.63
  -7  -9  -3   10.25   10.35
  -7  -9  -4   32.09   10.93
  -7  -9  -4   35.63   10.30
  -7  -9  -4   59.21   12.52
  -7  -9  -4   39.97   15.17
  -7  -9  -4   63.11   10.61
  -7  -9  -5  777.16   63.19
  -7  -9  -5  749.45   99.53
  -7  -9  -5  709.37   41.99
  -7  -9  -5  583.32   33.92
  -7  -9  -6 1541.51   91.68
  -7  -9  -6 1596.93  144.67
  -7  -9  -6 1621.04   71.32
  -7  -9  -6 1510.91   59.43
  -7  -9  -6 1245.76   68.18
  -7  -9  -6 1280.60   58.13
  -7  -9  -7  223.34   51.97
  -7  -9  -7  258.98   34.12
  -7  -9  -7  302.97   30.16
  -7  -9  -7  280.87   23.12
  -7  -9  -7  285.35   31.62
  -7  -9  -7  246.57   22.11
  -7  -9  -8  417.05   43.31
   7   9   8  413.90   62.16
  -7  -9  -8  356.72   62.11
  -7  -9  -8  450.98   35.66
  -7  -9  -8  427.70   29.89
  -7  -9  -8  443.48   29.02
  -7  -9  -9  181.12   41.80
  -7  -9  -9  164.56   22.18
  -7  -9  -9  149.85   15.08
  -7  -9  -9  170.34   19.45
  -7  -9  -9  131.96   15.22
  -7  -9  -9  146.04   16.56
  -7  -9 -10   16.90    5.62
  -7  -9 -10   17.46    8.59
  -7  -9 -10   35.49   11.09
  -7  -9 -11   39.03    9.01
  -7  -9 -11   41.83    7.58
  -7  -9 -11   44.71    8.77
  -7  -9 -12   93.86   13.23
  -7  -9 -12  101.06   12.76
  -7  -9 -12  103.17   12.03
  -7  -9 -12  104.75   13.08
  -7  -9 -13  614.89   34.32
  -7  -9 -13  700.46   32.50
  -7  -9 -13  656.41   33.36
  -7  -9 -13  605.01   29.84
  -7  -9 -14  127.54   11.00
  -7  -9 -14  184.98   13.39
  -7  -9 -15   40.55    5.76
  -7  -9 -15   46.91    5.56
  -7 -10   9    2.58    2.40
   7  10  -9    3.76    1.79
   7  10  -8  304.66   19.74
  -7 -10   8  285.31   19.79
   7  10  -7  191.32   18.77
  -7 -10   7  181.36   16.57
  -7 -10   6   15.20    6.54
  -7 -10   6   23.42    6.49
   7  10  -6   25.96    6.45
  -7 -10   5    7.13    2.99
  -7 -10   4  177.74   22.80
  -7 -10   4  195.33   37.83
  -7 -10   3    3.00    3.49
  -7 -10   3   20.45   11.64
   7  10  -3   18.53    6.66
   7  10  -3   -1.84    7.98
  -7 -10   3   14.18   13.94
  -7 -10   3   -2.46    5.12
   7  10  -2  450.52   34.57
  -7 -10   2  458.39   45.86
  -7 -10   2  472.31   37.12
  -7 -10   2  446.97   78.90
  -7 -10   2  547.33   61.60
  -7 -10   2  561.01   47.81
  -7 -10   1   58.40   11.82
  -7 -10   1   79.73   17.41
   7  10  -1   56.99   12.03
  -7 -10   1   36.84   27.27
  -7 -10   1   66.10   21.61
  -7 -10   1   73.62   14.36
  -7 -10   1  111.09   23.93
  -7 -10   0  679.13   40.81
  -7 -10   0  761.80   72.61
  -7 -10   0  625.06  108.85
  -7 -10   0  651.59   62.19
  -7 -10   0  744.67   46.33
  -7 -10   0  907.16   76.61
  -7 -10  -1   25.96    8.93
  -7 -10  -1   22.69   11.45
  -7 -10  -1   36.71   22.61
  -7 -10  -1   21.10   38.10
  -7 -10  -1   76.78   14.15
  -7 -10  -1   57.26   18.39
  -7 -10  -1   90.38   29.86
  -7 -10  -2    5.00    3.95
  -7 -10  -2   10.46    6.54
  -7 -10  -2    4.11   13.21
  -7 -10  -2    5.58   18.05
  -7 -10  -2   13.78    6.43
  -7 -10  -2   19.27   12.11
  -7 -10  -2   16.93   16.07
  -7 -10  -3   59.76   11.00
  -7 -10  -3   63.58   10.41
  -7 -10  -3   66.20   27.17
  -7 -10  -3   89.89   45.78
  -7 -10  -3   77.58   13.94
  -7 -10  -3   94.99   21.27
  -7 -10  -3   75.61   12.32
  -7 -10  -4   14.87    5.70
  -7 -10  -4   15.01    8.15
  -7 -10  -4   16.65    4.68
  -7 -10  -4    9.82    9.00
  -7 -10  -5  213.68   36.93
  -7 -10  -5  172.48   53.89
  -7 -10  -5  186.20   21.38
  -7 -10  -5  160.62   16.55
  -7 -10  -6  633.84   62.39
  -7 -10  -6  613.89   96.69
  -7 -10  -6  636.40   42.49
  -7 -10  -6  541.28   31.21
  -7 -10  -6  440.59   38.98
  -7 -10  -6  511.80   32.90
  -7 -10  -7  129.15   41.63
  -7 -10  -7   91.58   15.30
  -7 -10  -7   86.92   12.58
  -7 -10  -7   98.96   17.06
  -7 -10  -7   73.06   13.56
  -7 -10  -7   89.90   11.92
  -7 -10  -8  378.18   63.27
  -7 -10  -8  496.70   40.83
  -7 -10  -8  485.47   36.16
  -7 -10  -8  351.40   27.56
  -7 -10  -8  496.31   30.73
  -7 -10  -9   49.99   10.03
  -7 -10  -9   51.12   12.79
  -7 -10  -9   53.17    9.10
  -7 -10  -9   41.31    8.89
  -7 -10  -9   32.41    7.59
  -7 -10 -10   22.52    8.30
  -7 -10 -10   28.22   14.01
  -7 -10 -10   19.89    7.85
  -7 -10 -10   22.25    7.39
  -7 -10 -11    4.60    3.24
  -7 -10 -11    5.34    5.63
  -7 -10 -11    4.33    3.36
  -7 -10 -11    2.86    2.16
  -7 -10 -11    3.49    2.42
  -7 -10 -12   35.70    6.18
  -7 -10 -12   25.74    7.04
  -7 -10 -12   31.26    6.14
  -7 -10 -12   41.03    7.58
  -7 -10 -12   27.65    5.35
  -7 -10 -13  501.16   27.71
  -7 -10 -13  534.98   27.46
  -7 -10 -13  439.34   21.70
  -7 -10 -14  166.13   12.22
  -7 -10 -14    0.34    0.55
  -7 -10 -15   25.38    3.82
  -7 -11   8    8.14    2.18
   7  11  -8    7.10    2.73
  -7 -11   7   17.92    4.84
   7  11  -7   13.46    4.69
  -7 -11   6    6.48    3.17
   7  11  -6    0.45    2.27
  -7 -11   5  415.34   28.93
  -7 -11   5  352.14   28.45
  -7 -11   4   51.98   12.56
  -7 -11   4   86.93   15.57
   7  11  -3  102.88   15.37
  -7 -11   3  135.35   21.34
  -7 -11   3  114.08   16.57
  -7 -11   3  119.82   18.20
  -7 -11   2  124.41   23.22
  -7 -11   2  128.85   18.48
  -7 -11   2  139.85   31.87
  -7 -11   2  161.74   25.18
   7  11  -1  104.77   15.36
  -7 -11   1  136.92   16.98
  -7 -11   1  139.30   18.20
  -7 -11   1  119.49   27.71
  -7 -11   1  126.38   24.32
  -7 -11   0  148.46   21.10
  -7 -11   0  113.84   14.53
  -7 -11   0   73.91   29.56
  -7 -11   0  105.89   16.29
  -7 -11   0  120.91   27.59
  -7 -11   0  144.17   30.49
  -7 -11  -1   40.21    9.26
  -7 -11  -1   43.47   13.14
  -7 -11  -1   78.53   39.40
  -7 -11  -1   54.84   12.08
  -7 -11  -1   75.65   21.25
  -7 -11  -1   72.83   27.21
  -7 -11  -2  164.03   18.70
  -7 -11  -2  151.91   15.77
  -7 -11  -2  154.23   49.61
  -7 -11  -2  162.94   19.97
  -7 -11  -2  130.35   27.57
  -7 -11  -2  176.21   33.32
  -7 -11  -3  889.15   47.21
  -7 -11  -3  906.87   43.80
  -7 -11  -3  975.17  151.23
  -7 -11  -3  947.53   53.34
  -7 -11  -3 1073.89   76.79
  -7 -11  -3 1012.56   49.24
  -7 -11  -4   15.32   10.14
  -7 -11  -4   24.44    8.84
  -7 -11  -4   29.33   13.51
  -7 -11  -5   85.29   14.48
  -7 -11  -5  107.96   12.83
  -7 -11  -5   96.18   13.14
  -7 -11  -6    3.87   20.01
  -7 -11  -6   13.98   10.51
  -7 -11  -6   29.57    9.35
  -7 -11  -6   25.72    6.83
  -7 -11  -6    8.33    8.38
  -7 -11  -7   39.66   14.52
  -7 -11  -7   32.37    7.82
  -7 -11  -7    7.40    8.56
  -7 -11  -7   11.66    8.25
  -7 -11  -7   31.25    8.33
  -7 -11  -8  289.36   31.39
  -7 -11  -8  365.56   29.33
  -7 -11  -8  275.88   23.30
  -7 -11  -8  294.68   23.37
  -7 -11  -9   73.53   17.76
  -7 -11  -9  101.44   14.41
  -7 -11  -9   82.65   12.60
  -7 -11 -10  118.24   17.98
  -7 -11 -10  157.63   16.30
  -7 -11 -10  157.69   16.58
  -7 -11 -11  177.05   16.63
  -7 -11 -11  208.53   18.59
  -7 -11 -12    2.59    2.49
  -7 -11 -12    5.62    2.53
  -7 -11 -12    2.12    1.85
  -7 -11 -13  111.28   10.43
  -7 -11 -13  103.13   10.18
  -7 -11 -14    2.64    1.01
  -7 -12   7   15.53    3.27
  -7 -12   7   13.31    3.79
   7  12  -7   19.50    4.10
  -7 -12   6    4.51    2.74
  -7 -12   6    6.94    3.35
   7  12  -6    3.72    2.92
   7  12  -5  743.88   37.46
  -7 -12   5  768.03   37.76
  -7 -12   5  661.78   37.17
  -7 -12   4  305.32   26.51
  -7 -12   4  247.46   23.25
  -7 -12   3  134.81   19.74
  -7 -12   3  126.41   16.54
  -7 -12   3  111.22   17.66
  -7 -12   2   17.48    7.78
   7  12  -2   20.97    7.65
   7  12  -1  391.12   30.06
  -7 -12   1  462.76   30.29
  -7 -12   1  501.16   45.92
  -7 -12   0   10.24    5.00
  -7 -12   0   12.23    7.51
  -7 -12   0   20.92   11.61
  -7 -12   0   36.17   22.69
  -7 -12  -1   77.76   13.52
  -7 -12  -1   79.51   10.64
  -7 -12  -1   90.92   14.70
  -7 -12  -1  108.14   23.59
  -7 -12  -2  343.90   27.03
  -7 -12  -2  308.77   21.48
  -7 -12  -2  291.84   27.46
  -7 -12  -2  295.31   38.21
  -7 -12  -2  323.20   25.82
  -7 -12  -3 1181.22   54.99
  -7 -12  -3 1220.30   64.08
  -7 -12  -3 1387.27   85.60
  -7 -12  -3 1306.16   58.83
  -7 -12  -4   83.49   16.32
  -7 -12  -4  103.42   12.72
  -7 -12  -4   98.55   14.45
  -7 -12  -5   25.08    9.10
  -7 -12  -5   34.29    9.13
  -7 -12  -5   43.53    7.96
  -7 -12  -6   79.19   14.45
  -7 -12  -6   74.33   14.13
  -7 -12  -6   75.58   11.31
  -7 -12  -6   84.63   11.44
  -7 -12  -7  138.76   22.78
  -7 -12  -7  136.30   16.33
  -7 -12  -7  166.00   16.33
  -7 -12  -8  111.47   17.97
  -7 -12  -8  139.77   16.52
  -7 -12  -8   97.61   13.21
  -7 -12  -8  105.09   12.40
  -7 -12  -9  161.78   20.40
  -7 -12  -9  202.65   18.60
  -7 -12  -9  171.79   16.95
  -7 -12 -10  481.72   27.54
  -7 -12 -10  393.41   25.96
  -7 -12 -11  337.48   22.32
  -7 -12 -11  377.00   22.86
  -7 -12 -11  376.45   23.43
  -7 -12 -12   12.91    3.51
  -7 -12 -12   13.76    3.73
  -7 -12 -12   15.52    3.81
  -7 -12 -13   -0.46    0.74
   7  13  -5  286.86   18.50
  -7 -13   5  324.21   20.77
  -7 -13   5  300.92   19.92
   7  13  -4   53.71    8.85
  -7 -13   4   64.82   10.78
  -7 -13   3   39.23    7.66
  -7 -13   3   33.57    7.69
  -7 -13   3   42.45    9.85
  -7 -13   2   20.82    6.19
  -7 -13   2   53.56   14.81
   7  13  -1  153.97   16.73
  -7 -13   1  131.51   17.50
  -7 -13   1  186.58   16.68
  -7 -13   1  180.42   25.18
  -7 -13   0   38.92    7.67
  -7 -13   0   45.54    9.19
  -7 -13   0   36.80    8.39
  -7 -13   0   42.08   14.05
  -7 -13  -1   34.81    8.14
  -7 -13  -1   29.16    7.48
  -7 -13  -1   47.81   14.59
  -7 -13  -2   96.96   13.18
  -7 -13  -2   94.83   19.04
  -7 -13  -2  103.24   13.57
  -7 -13  -3  500.63   39.08
  -7 -13  -3  477.73   27.18
  -7 -13  -3  533.18   47.25
  -7 -13  -3  507.14   32.29
  -7 -13  -4   39.89   12.13
  -7 -13  -4   57.66   10.51
  -7 -13  -4   49.67    7.67
  -7 -13  -5   39.32   11.76
  -7 -13  -5   45.44    8.13
  -7 -13  -5   57.16   12.69
  -7 -13  -5   54.18    8.56
  -7 -13  -6    5.10    6.94
  -7 -13  -6   11.66    3.84
  -7 -13  -6    4.38    6.60
  -7 -13  -6   14.26    5.59
  -7 -13  -7   83.56   14.98
  -7 -13  -7   98.55   12.69
  -7 -13  -7   91.82   10.61
  -7 -13  -8   94.35   11.34
  -7 -13  -8   82.99   11.31
  -7 -13  -9   34.99    6.74
  -7 -13  -9   37.67    6.83
  -7 -13 -10  178.51   13.56
  -7 -13 -10  206.31   15.88
  -7 -13 -11  264.30   14.27
  -7 -13 -11  256.59   15.34
  -7 -14   4   34.17    5.93
   7  14  -4   29.55    4.79
  -7 -14   3   -0.76    1.33
   7  14  -3    1.82    1.43
  -7 -14   2  164.26   15.65
  -7 -14   2  236.38   20.66
  -7 -14   1   26.70    7.18
   7  14  -1   35.74    7.23
  -7 -14   1   48.47   11.27
   7  14   0  280.31   21.61
  -7 -14   0  282.87   22.48
  -7 -14   0  314.18   31.43
  -7 -14   0  273.75   20.02
  -7 -14  -1   13.27    6.00
  -7 -14  -1   29.71    5.30
  -7 -14  -1   32.06    7.74
  -7 -14  -1   42.16   15.05
  -7 -14  -2    3.22    2.63
  -7 -14  -2    6.59    4.32
  -7 -14  -2    1.87    5.36
  -7 -14  -3   18.71    5.37
  -7 -14  -3   19.23    4.17
  -7 -14  -3   22.63    8.47
  -7 -14  -4    3.53    4.15
  -7 -14  -4    7.31    3.74
  -7 -14  -5  116.88   13.72
  -7 -14  -5  107.86   10.55
  -7 -14  -6  256.01   20.04
  -7 -14  -7   26.34    5.93
  -7 -14  -8  147.53   13.90
  -7 -14  -9    7.10    3.07
  -7 -14 -10   24.20    4.42
  -7 -15   1  130.71   15.08
   7  15   0  282.56   18.66
  -7 -15   0  340.61   26.94
   7  15   1   37.89    6.78
  -7 -15  -1   56.85   12.77
  -7 -15  -1   51.86    7.72
   7  15   2   90.11   10.72
  -7 -15  -2  104.10   15.94
  -7 -15  -2   87.58   10.24
  -7 -15  -3    8.27    5.40
  -7 -15  -3    0.71    1.86
  -7 -15  -4   57.51    8.04
  -7 -15  -5  147.53   13.53
  -7 -15  -6  311.03   19.94
  -7 -15  -7  115.17   10.99
   8  -8   0  271.96   26.30
  -8   8   0  287.02   20.63
   8  -8   0  310.35   30.57
   8  -8   0  238.98   17.28
   8  -8   0  265.52   26.17
   8  -8   1   36.49    8.25
  -8   8  -1   15.93    6.22
   8  -8   1   15.24    6.75
   8  -8   1   36.81   12.86
   8  -8   1   21.93    4.58
  -8   8  -2   54.85   10.56
   8  -8   2   46.49   10.89
   8  -8   2   52.73    7.08
   8  -8   3  524.98   73.25
  -8   8  -3  217.02   21.13
   8  -8   3  232.99   22.49
   8  -8   3  442.98   52.36
   8  -8   3  236.40   16.75
   8  -8   4  334.05   52.94
   8  -8   4  285.90   45.86
   8  -8   5  224.48   37.83
  -8   8  -5  107.66   13.18
   8  -8   6   71.67   15.65
  -8   8  -6   53.41    8.16
   8  -8   7  153.12   18.13
   8  -8   7  168.62   18.81
   8  -7  -3   -0.39    3.22
   8  -7  -3    2.42    2.76
   8  -7  -2    5.30    4.27
   8  -7  -2    2.22    2.23
   8  -7  -2   11.96    6.24
   8  -7  -1   -4.81    5.15
  -8   7   1    1.58    3.73
   8  -7  -1    1.42    2.50
   8  -7  -1   -0.86    3.70
   8  -7  -1   -1.18    1.50
   8  -7   0   75.40   23.47
  -8   7   0   59.17   11.64
   8  -7   0   40.12    6.21
   8  -7   1   69.20   34.55
  -8   7  -1   63.51   13.66
   8  -7   1   38.74    6.75
  -8   7  -2    7.85    7.49
   8  -7   2    1.73    2.57
   8  -7   3   24.65   61.16
  -8   7  -3   22.23    7.56
   8  -7   4  -13.79   34.32
   8  -7   4   12.74    5.18
  -8   7  -5   68.38   13.26
   8  -7   5  171.46   52.88
  -8   7  -6    1.73    3.56
   8  -7   6   18.06   15.59
  -8   7  -7   21.09    5.92
   8  -7   7   36.96   14.76
   8  -7   8   18.31    7.12
  -8   7  -8   19.69    4.59
   8  -7   9   14.90    5.33
   8  -7  10   35.10    7.24
   8  -6  -5   33.00    6.57
   8  -6  -5   33.87    6.22
   8  -6  -4    1.47    2.36
   8  -6  -4    4.48    4.96
   8  -6  -3    0.57    1.80
   8  -6  -3   79.50   12.02
   8  -6  -2   19.98    9.69
  -8   6   2   26.32    7.24
   8  -6  -2   19.58    6.59
   8  -6  -2   15.21    5.81
   8  -6  -1  198.38   36.55
  -8   6   1  172.19   20.30
   8  -6  -1  149.03   13.20
  -8   6   0   62.10   13.91
   8  -6   0   48.07    8.47
  -8   6  -1   41.46   11.22
   8  -6   1   60.13    9.20
  -8   6  -2  217.75   29.62
   8  -6   3 1047.41  240.74
  -8   6  -3  223.76   30.69
   8  -6   4  149.11   95.67
   8  -6   5  -33.86   39.27
  -8   6  -5   25.58    9.61
   8  -6   6  372.24   68.99
  -8   6  -6  258.06   27.24
   8  -6   7   76.12   27.98
  -8   6  -7   40.03    8.62
   8  -6   8   20.06   12.74
  -8   6  -8    8.92    4.06
  -8   6  -9   15.87    3.98
  -8   6  -9   18.71    4.63
  -8   6 -10  271.24   16.39
  -8   6 -11   43.26    5.59
   8  -5  -6   10.34    3.34
   8  -5  -5  121.47   14.96
   8  -5  -5  148.87   16.80
   8  -5  -4   21.75    7.46
   8  -5  -4   20.09    7.65
   8  -5  -3  108.23   19.80
   8  -5  -3  149.72   18.91
   8  -5  -3  141.91   22.35
   8  -5  -2   61.20   20.19
  -8   5   2   63.87   11.65
   8  -5  -2   76.28   13.91
   8  -5  -1  283.42   52.67
  -8   5   1  353.77   31.38
   8  -5  -1  334.65   21.78
   8  -5   0  119.93   42.75
  -8   5   0  103.56   18.85
   8  -5   0   87.73   11.03
   8  -5   1  123.26   68.47
  -8   5  -1   77.39   17.01
  -8   5  -2  271.25   37.97
  -8   5  -2  261.64   58.90
  -8   5  -3  399.60   48.97
  -8   5  -3  352.20   72.48
   8  -5   4   39.15   60.27
   8  -5   5   49.26   39.31
  -8   5  -5   25.32   10.96
  -8   5  -5   53.12   29.50
   8  -5   6  553.65   92.49
  -8   5  -6  599.55   48.09
  -8   5  -7   42.94    8.14
   8  -5   7   16.13   13.96
  -8   5  -7   30.03    8.80
   8  -5   8   13.78   14.00
  -8   5  -8    2.31    1.52
  -8   5  -8    1.84    3.61
  -8   5  -9   54.93    9.31
   8  -5   9   42.58   13.14
  -8   5  -9   46.87    8.71
  -8   5 -10  438.57   26.94
  -8   5 -11   72.64    9.11
  -8   5 -11   86.19    8.98
  -8   5 -12    0.96    1.43
  -8   5 -12    3.60    1.40
  -8   5 -13    2.64    1.47
   8  -5  13    5.44    3.61
  -8   5 -13    2.89    1.45
   8  -4  -7   72.88    6.90
   8  -4  -7   68.55    7.82
   8  -4  -6    1.41    1.40
   8  -4  -6    4.83    3.02
   8  -4  -6   -1.16    4.21
   8  -4  -6   -1.43    2.82
   8  -4  -5   57.81   12.61
   8  -4  -5   54.84   12.98
   8  -4  -4   16.08    5.94
   8  -4  -4   12.85    9.16
  -8   4   3    6.02    3.43
   8  -4  -3    9.36    2.69
   8  -4  -2   96.46   29.38
  -8   4   2  107.53   16.24
   8  -4  -1   19.75   25.37
   8  -4  -1   40.16   14.45
  -8   4   1   31.54    8.62
  -8   4   1   58.78   21.60
   8  -4   0   72.69   42.59
  -8   4   0   60.83   14.24
  -8   4   0   53.07   19.60
   8  -4   1   28.34   49.16
  -8   4  -1   22.95   10.74
  -8   4  -1   66.80   27.41
  -8   4  -2  121.30   25.49
  -8   4  -2  116.03   37.31
   8  -4   3   22.13   69.88
  -8   4  -3   23.87   17.71
  -8   4  -3   17.06   31.91
   8  -4   4   82.05   53.43
   8  -4   5   95.75   42.60
  -8   4  -5  148.11   27.76
  -8   4  -5  116.65   33.85
  -8   4  -6   20.96    6.58
  -8   4  -6   21.43    8.74
  -8   4  -6    3.13   12.59
  -8   4  -7   44.38    9.08
   8  -4   7   27.98   28.90
  -8   4  -7   38.90   11.86
  -8   4  -7   31.65   15.68
  -8   4  -8    9.06    5.92
   8  -4   8   -2.95   15.50
  -8   4  -8    9.48    5.59
   8  -4   8   -9.02   29.00
  -8   4  -8    9.59    6.17
   8  -4   9   52.27   21.05
  -8   4  -9   15.68    5.63
   8  -4  10  139.23   25.29
  -8   4 -10  208.00   21.05
  -8   4 -10  161.44   16.16
  -8   4 -11   10.45    4.62
  -8   4 -12   39.07    6.77
  -8   4 -12   39.04    6.42
  -8   4 -13   56.34    6.96
  -8   4 -13   56.49    6.64
  -8   4 -14    9.68    2.72
   8  -4  14    3.55    2.25
  -8   4 -14    9.94    2.28
   8  -3  -8  103.77    8.55
   8  -3  -7    1.26    1.58
   8  -3  -7    0.87    2.58
   8  -3  -7    9.78    3.01
   8  -3  -7    6.87    2.43
   8  -3  -6   -3.16    2.87
   8  -3  -6   -2.33    2.77
   8  -3  -6   -6.66    5.70
   8  -3  -6   -0.71    2.42
   8  -3  -6   -3.43    3.71
   8  -3  -5   39.55    7.15
   8  -3  -5   63.00   14.52
   8  -3  -5   34.37   11.88
   8  -3  -4  518.81   30.59
   8  -3  -3   52.20    9.50
   8  -3  -3   46.67   15.86
   8  -3  -3   15.95   11.34
  -8   3   3   41.61   10.97
   8  -3  -2   51.85   15.82
  -8   3   2   40.08   11.31
  -8   3   2   32.70   16.09
   8  -3  -1    9.67   12.33
  -8   3   1   33.51    9.51
  -8   3   1   22.32   16.04
   8  -3   0  447.45   76.46
  -8   3   0  414.73   39.36
  -8   3   0  349.67   56.63
   8  -3   1   46.05   18.97
  -8   3  -1   51.95   13.10
  -8   3  -1   47.33   25.01
  -8   3  -2   78.42   19.93
  -8   3  -2   39.94   25.39
   8  -3   3  712.57  119.43
  -8   3  -3  540.81   60.46
  -8   3  -3  517.94   92.65
   8  -3   4  237.09   73.33
   8  -3   5  160.70   54.58
  -8   3  -5  135.47   14.09
  -8   3  -5  192.81   31.06
   8  -3   6  123.73   42.72
  -8   3  -6  120.15   15.28
  -8   3  -6  186.31   28.34
  -8   3  -6  137.75   40.49
   8  -3   7  195.99   48.87
  -8   3  -7  169.32   19.96
  -8   3  -7  198.06   26.57
  -8   3  -7  189.76   41.33
   8  -3   8   -9.78   28.20
  -8   3  -8    6.45    4.03
  -8   3  -8   29.37   13.98
  -8   3  -9  297.93   29.06
   8  -3   9  244.20   45.55
  -8   3  -9  279.85   25.64
   8  -3  10    1.75    7.91
  -8   3 -10   12.88    5.42
  -8   3 -10    9.75    4.56
  -8   3 -11  116.65   16.86
  -8   3 -11   85.85   12.81
  -8   3 -12   42.84    8.26
  -8   3 -13  205.26   15.63
  -8   3 -13  218.92   16.10
  -8   3 -14   32.47    5.18
  -8   3 -14   38.41    5.50
   8  -3  15   93.62    9.10
   8  -3  15   85.03    7.66
  -8   3 -15   97.28    7.03
   8  -2  -9   12.99    2.86
   8  -2  -8  304.15   18.87
   8  -2  -8  317.97   20.50
   8  -2  -8  259.46   16.44
   8  -2  -7   43.55    9.50
   8  -2  -7   40.51   10.27
   8  -2  -7   44.09    7.90
   8  -2  -7   44.83    6.88
   8  -2  -6    3.56    3.12
   8  -2  -6    4.74    2.97
   8  -2  -6   -1.61    5.65
   8  -2  -6   -4.13    7.55
   8  -2  -6    1.87    3.11
   8  -2  -5  152.67   18.41
   8  -2  -5  151.64   16.02
   8  -2  -5  117.33   18.58
   8  -2  -4  652.86   42.78
   8  -2  -4  735.03   40.68
   8  -2  -3   -4.93    3.93
   8  -2  -3    8.95    2.01
  -8   2   3    3.37    2.09
   8  -2  -3    0.91    4.45
   8  -2  -3    4.26    7.86
   8  -2  -3   -6.66   14.34
   8  -2  -2   26.30    9.73
   8  -2  -2   13.92    6.48
  -8   2   2   15.25    5.16
   8  -2  -2    8.86    8.88
   8  -2  -2   14.91    4.85
  -8   2   1  205.50   25.67
  -8   2   1  202.78   39.42
   8  -2  -1  183.56   37.56
   8  -2   0  487.43   66.23
  -8   2   0  419.38   39.90
  -8   2   0  415.85   62.43
  -8   2  -1   96.31   20.59
  -8   2  -1   57.92   25.32
   8  -2   1  103.77   40.62
  -8   2  -2   43.28   14.03
  -8   2  -2   54.01   29.78
  -8   2  -3  321.29   42.38
  -8   2  -3  300.36   66.15
   8  -2   3  343.97   71.22
   8  -2   4  361.72   71.75
  -8   2  -5  280.19   37.97
  -8   2  -5  312.32   62.34
   8  -2   5  257.24   59.26
  -8   2  -5  198.23   17.70
  -8   2  -6  195.72   29.92
  -8   2  -6  169.10   45.26
   8  -2   6  150.82   36.83
  -8   2  -6  165.06   17.90
   8  -2   7  547.17   70.89
  -8   2  -7  508.29   37.25
  -8   2  -7  573.41   46.97
  -8   2  -7  528.27   70.72
   8  -2   8  128.95   32.11
  -8   2  -8  181.43   21.77
  -8   2  -8  161.85   21.79
  -8   2  -8  168.16   37.26
   8  -2   9   79.43   27.25
  -8   2  -9  104.77   18.87
  -8   2  -9  115.31   16.48
  -8   2 -10    7.45    7.66
  -8   2 -10    9.31    6.18
  -8   2 -11  273.33   27.05
  -8   2 -11  280.87   25.22
  -8   2 -12   50.58    9.42
  -8   2 -12   51.18    8.72
  -8   2 -13  463.98   27.01
  -8   2 -13  452.98   24.06
  -8   2 -13  494.45   28.30
  -8   2 -14  122.27   11.73
  -8   2 -15  194.17   12.51
  -8   2 -15  212.26   13.05
   8  -1  -9   52.57    6.68
   8  -1  -9   65.38    7.69
   8  -1  -9   48.32    6.75
   8  -1  -9   51.91    6.58
   8  -1  -8   44.10    7.80
   8  -1  -8   39.96    6.98
   8  -1  -8   29.15    6.10
   8  -1  -8   32.21    6.15
   8  -1  -7   17.89    6.37
   8  -1  -7   13.32    5.89
   8  -1  -7   19.41    6.36
   8  -1  -7   14.67    5.56
   8  -1  -6   32.80   10.92
   8  -1  -6   57.45   10.49
   8  -1  -6   63.62   10.75
   8  -1  -6   33.83    8.15
   8  -1  -5   63.00   12.00
   8  -1  -5   60.70   10.94
   8  -1  -5   75.13   16.62
   8  -1  -5   46.43   12.74
   8  -1  -4  345.02   30.16
   8  -1  -4  373.01   31.13
   8  -1  -4  334.50   35.56
   8  -1  -3   58.66   13.28
   8  -1  -3   49.52   11.30
  -8   1   3   37.93    9.27
   8  -1  -3   36.53   10.82
   8  -1  -3   41.88   18.16
   8  -1  -2   -3.78    7.17
   8  -1  -2    9.97    5.64
  -8   1   2   -0.77    5.39
   8  -1  -2    4.35    5.91
   8  -1  -2   -1.22    5.64
   8  -1  -1   25.88    8.26
   8  -1  -1   28.47    8.67
  -8   1   1   25.63    8.24
  -8   1   1   36.12   19.42
   8  -1  -1   21.21   10.71
  -8   1   0    2.13    6.87
  -8   1   0    5.44   14.60
   8  -1   0   27.88   17.23
   8  -1   1  319.97   50.98
  -8   1  -1  328.83   40.29
  -8   1  -1  331.26   62.89
   8  -1   1  294.02   67.67
  -8   1  -2   -1.42    7.31
  -8   1  -2    7.32    6.69
   8  -1   2   30.05   16.46
   8  -1   2   34.31   40.13
  -8   1  -3    1.47    8.51
  -8   1  -3    3.79   10.04
   8  -1   3   -3.00   17.53
   8  -1   3   -5.62   28.71
  -8   1  -4  142.40   14.02
   8  -1   4  169.16   44.00
   8  -1   4  219.04   66.45
  -8   1  -5   85.47   20.79
  -8   1  -5   45.43   26.57
  -8   1  -5   38.12    7.13
   8  -1   5   72.33   29.96
   8  -1   5   69.34   35.94
  -8   1  -6  177.84   28.26
  -8   1  -6  183.24   27.90
  -8   1  -6  153.59   42.81
   8  -1   6  154.76   34.01
  -8   1  -6  174.01   18.55
  -8   1  -7   67.94   16.14
  -8   1  -7   57.33   21.55
  -8   1  -7   55.97   11.47
   8  -1   7   67.24   24.82
   8  -1   7   75.51   27.74
  -8   1  -8   33.22    9.56
  -8   1  -8   26.02   10.69
   8  -1   8   43.30   19.05
   8  -1   8   31.68   18.94
  -8   1  -8   34.52    9.38
  -8   1  -9    2.09    3.78
  -8   1  -9    1.69    4.17
   8  -1   9    5.10   12.38
  -8   1  -9    2.93    6.27
  -8   1 -10   20.20    6.09
  -8   1 -10   20.70    6.81
  -8   1 -10   27.83    8.54
  -8   1 -10   35.74    9.10
  -8   1 -11  187.07   20.52
  -8   1 -11  163.96   16.73
  -8   1 -12    3.91    3.65
  -8   1 -12   -1.60    2.96
  -8   1 -12    3.44    3.24
  -8   1 -13  133.72   12.38
  -8   1 -13  149.11   15.03
  -8   1 -13  143.20   14.87
  -8   1 -14    3.46    1.73
  -8   1 -14    3.29    2.40
  -8   1 -14    4.98    2.21
  -8   1 -15  102.85    9.46
  -8   1 -15  110.05   10.20
  -8   1 -16    0.95    0.76
  -8   1 -16    0.32    1.06
   8   0 -10    4.85    2.15
   8   0 -10    3.64    1.90
   8   0  -9  166.40   13.53
   8   0  -9  172.29   13.58
   8   0  -9  175.18   14.26
   8   0  -9  183.87   14.77
   8   0  -8   80.61   11.01
   8   0  -8   82.46   10.50
   8   0  -8   85.06   13.15
   8   0  -8   91.76   12.97
   8   0  -7  334.31   25.20
   8   0  -7  352.54   25.54
   8   0  -7  369.37   33.20
   8   0  -6    2.41    4.21
   8   0  -6    6.71    4.83
   8   0  -6   10.01    9.67
   8   0  -6    6.55    6.76
   8   0  -5  124.33   16.51
   8   0  -5  110.81   17.43
   8   0  -5  106.23   20.52
   8   0  -5   77.34   14.82
   8   0  -4   20.27    9.47
   8   0  -4   19.24    6.91
   8   0  -4   10.04    3.50
   8   0  -3  124.87   20.04
   8   0  -3  121.01   18.21
  -8   0   3  110.15   16.51
   8   0  -3  131.74   22.18
   8   0  -3  114.73   22.81
   8   0  -2   83.71   17.55
   8   0  -2   90.46   16.70
  -8   0   2   98.30   16.57
   8   0  -2  110.44   18.46
   8   0  -2  101.81   22.25
   8   0  -2  109.71   20.40
   8   0  -1  313.49   27.83
   8   0  -1  339.68   41.12
  -8   0   1  326.41   33.00
   8   0  -1  328.25   59.86
  -8   0   0   52.20   14.15
   8   0   0   57.63   17.38
   8   0   0   56.51   23.93
  -8   0  -1  116.60   23.25
  -8   0  -1   91.50   30.06
   8   0   1  106.07   27.18
  -8   0  -2  251.09   33.85
  -8   0  -2  232.43   52.64
   8   0   2  267.22   43.17
   8   0   2  264.08   58.97
  -8   0  -3  156.82   27.81
  -8   0  -3  187.62   47.22
  -8   0  -3  188.79   15.29
   8   0   3  191.13   55.88
  -8   0  -4    5.72    2.44
   8   0   4   -2.43   10.11
   8   0   4    9.51   17.49
  -8   0  -5  127.81   23.47
  -8   0  -5   89.96   35.48
  -8   0  -5  131.97   14.38
   8   0   5  129.27   33.47
   8   0   5  192.17   60.20
   8   0   6  423.45   54.25
  -8   0  -6  538.64   47.33
  -8   0  -6  511.67   72.31
  -8   0  -6  465.39   47.34
   8   0   6  520.46   93.57
  -8   0  -6  451.82   31.57
  -8   0  -7   51.17   10.98
  -8   0  -7   62.77   14.54
  -8   0  -7   37.98   12.15
  -8   0  -7   46.69   11.82
   8   0   7   63.35   19.82
   8   0   7   67.10   35.42
  -8   0  -8   11.23    5.60
  -8   0  -8    0.82    4.28
  -8   0  -8    3.82    3.49
  -8   0  -8   11.19    4.07
   8   0   8    1.59   11.60
   8   0   8   18.88   15.38
  -8   0  -9   69.36   12.31
  -8   0  -9   85.21   14.03
  -8   0  -9   71.89   14.63
   8   0   9   70.60   19.27
  -8   0 -10  564.46   36.21
  -8   0 -10  537.27   34.61
  -8   0 -10  528.26   49.01
  -8   0 -10  582.59   40.31
  -8   0 -11   68.15   12.82
  -8   0 -11   50.89   10.00
  -8   0 -12    8.77    4.06
  -8   0 -13    3.76    2.52
  -8   0 -13    9.74    4.14
  -8   0 -13    0.93    2.46
  -8   0 -14  324.74   21.46
  -8   0 -14  296.25   19.76
  -8   0 -14  329.87   21.67
  -8   0 -14  335.32   22.53
  -8   0 -15   43.08    6.29
  -8   0 -15   43.17    6.05
  -8   0 -15   39.43    5.77
  -8   0 -15   50.02    7.21
  -8   0 -16   58.29    6.15
  -8   0 -16   52.92    6.04
   8   1 -10   19.92    4.17
   8   1 -10   29.82    4.66
   8   1 -10   25.26    4.31
   8   1  -9  250.05   17.83
   8   1  -9  257.18   17.60
   8   1  -9  258.50   19.02
   8   1  -9  261.90   19.29
   8   1  -8  173.36   16.66
   8   1  -8  183.90   17.31
   8   1  -8  205.54   21.30
   8   1  -7  814.56   42.36
   8   1  -7  857.10   46.26
   8   1  -6   -0.74    3.01
   8   1  -6    0.57    3.97
   8   1  -5  224.24   22.91
   8   1  -5  279.83   29.74
   8   1  -5  218.00   28.47
   8   1  -4   60.63   14.16
   8   1  -4   61.83   12.55
   8   1  -4   35.59   11.27
   8   1  -3   71.08   15.80
   8   1  -3   73.36   14.45
  -8  -1   3   70.63   12.26
   8   1  -3   77.20   15.97
   8   1  -3   42.68   10.60
   8   1  -2  219.78   29.04
   8   1  -2  250.28   26.31
  -8  -1   2  239.89   25.42
   8   1  -2  238.65   27.68
  -8  -1   2  233.22   36.82
   8   1  -2  251.87   49.35
   8   1  -1  660.56   44.61
  -8  -1   1  756.02   50.48
   8   1  -1  739.66   48.30
   8   1  -1  735.45   82.68
  -8  -1   0   31.31    8.75
   8   1   0   30.02   17.94
  -8  -1  -1  157.19   25.91
  -8  -1  -2  233.69   31.15
  -8  -1  -2  287.52   18.56
   8   1   2  311.55   54.68
  -8  -1  -3   55.16   16.78
  -8  -1  -3   52.92    7.83
   8   1   3   79.15   27.43
  -8  -1  -4   17.20    4.96
   8   1   4   34.65   24.27
  -8  -1  -5   77.66   19.03
  -8  -1  -5   69.84   10.66
  -8  -1  -6  481.30   43.75
  -8  -1  -6  476.04   47.42
  -8  -1  -6  490.97   32.68
  -8  -1  -7  242.92   28.63
  -8  -1  -7  220.80   31.64
   8   1   7  297.08   64.67
  -8  -1  -7  232.25   24.75
  -8  -1  -8   46.73   11.76
  -8  -1  -8   34.99   12.90
  -8  -1  -8   28.83    8.24
   8   1   8   52.56   16.01
   8   1   8   38.62   15.38
  -8  -1  -9   10.79    6.56
  -8  -1  -9   11.29    5.89
  -8  -1  -9    3.59    4.26
   8   1   9    5.70    7.09
   8   1   9   14.37    7.75
  -8  -1  -9   11.93    7.04
  -8  -1 -10  806.00   47.79
  -8  -1 -10  863.10   45.26
  -8  -1 -10  895.53   64.36
  -8  -1 -10  849.94   49.49
  -8  -1 -11  131.38   17.49
  -8  -1 -12   28.68    8.32
  -8  -1 -13   56.00   10.00
  -8  -1 -13   61.87   10.46
  -8  -1 -13   53.71    9.63
  -8  -1 -14  553.95   29.78
  -8  -1 -14  577.38   31.66
  -8  -1 -14  543.22   31.33
  -8  -1 -15    6.71    2.89
  -8  -1 -15    4.76    3.21
  -8  -1 -15    4.81    2.94
  -8  -1 -16   77.14    7.29
  -8  -1 -16   71.12    7.37
  -8  -1 -17  148.22    9.56
  -8  -1 -17  149.18    8.83
   8   2 -10    6.44    2.78
   8   2  -9  123.81   12.43
   8   2  -9  134.14   13.73
   8   2  -8    4.62    3.50
   8   2  -8   -0.47    3.25
   8   2  -7  176.64   18.02
   8   2  -7  208.76   21.54
   8   2  -6    7.59    4.38
   8   2  -6    7.51    5.40
   8   2  -6    9.52    9.35
   8   2  -5    1.84    5.97
   8   2  -5   12.44    5.30
   8   2  -4   64.09   14.58
   8   2  -4   83.34   14.30
   8   2  -4   83.59   19.03
   8   2  -3    5.59    5.68
  -8  -2   3    0.62    3.12
   8   2  -3    2.75    4.89
  -8  -2   3   -1.32    4.22
   8   2  -3   -0.89    4.52
   8   2  -3   12.34   10.85
   8   2  -2  166.80   21.89
  -8  -2   2  151.51   19.82
   8   2  -2  129.42   20.00
   8   2  -2  122.85   29.95
  -8  -2   2  143.07   27.52
   8   2  -1   91.80   15.77
  -8  -2   1   79.90   15.62
   8   2  -1   78.13   14.37
   8   2  -1   81.18   26.04
  -8  -2   1   61.98   20.09
  -8  -2   0   56.37   12.89
   8   2   0   48.88   12.59
   8   2   0   31.40   16.61
  -8  -2   0   57.44   22.83
  -8  -2  -1  165.25   26.26
   8   2   1  143.34   34.89
  -8  -2  -2  112.63   20.28
  -8  -2  -2  104.80   11.30
  -8  -2  -3   -2.60    6.22
  -8  -2  -3    5.36    3.67
  -8  -2  -4   19.60    4.84
  -8  -2  -5  118.47   22.53
  -8  -2  -5  117.16   14.31
  -8  -2  -6   85.39   16.79
  -8  -2  -6   92.37   11.44
  -8  -2  -6   74.96   18.65
  -8  -2  -6   83.26   13.20
  -8  -2  -7   35.08   11.58
  -8  -2  -7   42.56    7.83
  -8  -2  -7   43.48   15.29
  -8  -2  -7   36.69   10.09
  -8  -2  -7   50.72   19.28
  -8  -2  -8    7.58    6.36
  -8  -2  -8    2.82    5.84
  -8  -2  -8    4.67    2.85
  -8  -2  -8   11.83   11.75
  -8  -2  -9   57.90   12.08
  -8  -2  -9   66.58   16.73
  -8  -2  -9   47.55   10.63
  -8  -2 -10  235.23   20.27
  -8  -2 -10  238.97   25.24
  -8  -2 -10  248.27   22.23
  -8  -2 -10  213.32   22.51
  -8  -2 -10  259.65   33.07
  -8  -2 -11    4.76    4.00
  -8  -2 -11   11.54    5.74
  -8  -2 -12   40.32    8.49
  -8  -2 -12   32.78    6.94
  -8  -2 -12   33.61    8.31
  -8  -2 -13   48.19    8.89
  -8  -2 -13   31.90    6.12
  -8  -2 -13   39.99    9.43
  -8  -2 -13   30.46    7.61
  -8  -2 -13   44.26    8.63
  -8  -2 -14   18.84    5.31
  -8  -2 -14   17.64    4.90
  -8  -2 -14   26.32    6.74
  -8  -2 -14   19.95    5.08
  -8  -2 -14   24.80    5.79
  -8  -2 -15   69.72    8.36
  -8  -2 -15   82.47   10.65
  -8  -2 -15   63.96    8.49
  -8  -2 -16    6.12    2.00
  -8  -2 -16    9.59    3.45
  -8  -2 -17    6.44    2.19
   8   3 -10  141.12   10.90
   8   3 -10  159.89   12.36
   8   3  -9   19.54    5.13
   8   3  -9   14.99    4.26
   8   3  -9   26.68    6.37
   8   3  -8  291.24   23.05
   8   3  -8  325.31   28.27
   8   3  -8  367.23   27.91
   8   3  -7   13.10    5.58
   8   3  -7   -0.93    7.67
   8   3  -7   14.62    7.42
   8   3  -6   25.45    7.41
   8   3  -6   20.37   10.11
   8   3  -5  207.10   23.30
   8   3  -5  209.29   26.80
   8   3  -5  153.54   26.29
   8   3  -4 1082.10   59.08
   8   3  -4 1006.90   89.28
  -8  -3   3    6.68    3.89
   8   3  -3    7.48    5.13
  -8  -3   3    9.30    3.15
   8   3  -3   15.38    8.97
  -8  -3   3    5.25    6.30
   8   3  -3    2.05    5.25
  -8  -3   2    4.36    2.88
   8   3  -2    2.37    5.26
  -8  -3   2   -1.44    3.79
   8   3  -2    7.93    8.34
  -8  -3   2    6.10    5.64
   8   3  -2   -3.92    6.11
   8   3  -1  146.82   21.12
  -8  -3   1  141.41   14.89
  -8  -3   1  147.04   21.62
   8   3  -1  124.19   19.18
  -8  -3   1  143.38   31.44
   8   3  -1  135.62   28.29
   8   3   0  164.95   21.96
  -8  -3   0  176.70   16.94
  -8  -3   0  179.66   24.50
   8   3   0  184.02   23.85
  -8  -3   0  180.97   36.01
  -8  -3  -1  174.24   16.27
  -8  -3  -1  137.68   30.97
  -8  -3  -1  157.44   23.73
   8   3   1  172.03   21.84
  -8  -3  -2   24.92   16.40
  -8  -3  -2   39.19    9.65
  -8  -3  -3  294.48   53.99
  -8  -3  -3  297.03   21.10
   8   3   3  355.60   77.23
  -8  -3  -3  324.82   37.13
  -8  -3  -4  170.91   16.08
   8   3   4  171.99   50.40
  -8  -3  -5  115.76   13.82
  -8  -3  -5  131.58   34.99
  -8  -3  -5  117.57   23.47
  -8  -3  -5  107.11   23.28
  -8  -3  -6    0.57    2.44
  -8  -3  -6   -4.44    4.81
  -8  -3  -6    4.00    5.11
  -8  -3  -6    1.67    3.78
  -8  -3  -6   -1.41    3.97
  -8  -3  -7  567.30   36.56
  -8  -3  -7  555.79   60.91
  -8  -3  -7  529.31   41.74
  -8  -3  -7  514.35   30.16
  -8  -3  -7  515.96   51.50
  -8  -3  -7  516.53   30.77
  -8  -3  -8   55.43   10.44
  -8  -3  -8   62.77   10.02
  -8  -3  -8   72.02   18.53
  -8  -3  -8   68.68   20.45
  -8  -3  -8   54.49   11.08
  -8  -3  -9  181.59   19.92
  -8  -3  -9  211.91   19.55
  -8  -3  -9  154.67   19.05
  -8  -3  -9  175.86   28.82
  -8  -3 -10   35.69   12.46
  -8  -3 -10   36.04    8.29
  -8  -3 -10   50.83   10.15
  -8  -3 -10   39.70   13.31
  -8  -3 -11  238.60   22.96
  -8  -3 -11  213.14   20.51
  -8  -3 -11  211.05   24.31
  -8  -3 -12   27.99    7.33
  -8  -3 -12   27.59    7.38
  -8  -3 -12   23.81    7.48
  -8  -3 -13  431.29   28.13
  -8  -3 -13  438.14   28.32
  -8  -3 -13  429.70   32.19
  -8  -3 -13  414.12   30.13
  -8  -3 -13  420.00   28.33
  -8  -3 -14  120.34   12.43
  -8  -3 -14  123.71   13.17
  -8  -3 -14  143.15   16.36
  -8  -3 -14  120.38   14.49
  -8  -3 -14  128.60   13.63
  -8  -3 -15  230.78   15.67
  -8  -3 -15  267.53   20.08
  -8  -3 -15  221.52   16.73
  -8  -3 -15  241.25   16.90
  -8  -3 -15  223.92   15.96
  -8  -3 -16   35.58    4.78
  -8  -3 -16   49.14    7.20
  -8  -3 -17  103.95    8.04
  -8  -3 -17  110.88    8.60
   8   4 -10  198.76   13.09
   8   4 -10  222.87   14.25
   8   4  -9   27.08    5.61
   8   4  -9   30.54    5.88
   8   4  -9   29.04    5.95
   8   4  -8  280.72   22.41
   8   4  -8  283.80   23.13
   8   4  -8  301.30   25.41
   8   4  -8  346.67   25.68
   8   4  -7   11.23    6.47
   8   4  -7    9.30    3.17
   8   4  -7   13.41    7.01
   8   4  -7   10.07    5.31
  -8  -4   6   32.91    6.95
   8   4  -6   31.35    8.85
   8   4  -6   24.14    9.63
   8   4  -5  303.90   27.24
  -8  -4   5  294.32   24.23
   8   4  -5  258.57   29.09
   8   4  -4 1486.97   68.33
  -8  -4   4 1480.65   62.89
  -8  -4   3   32.40    8.80
   8   4  -3   23.08    7.38
  -8  -4   3   16.21    5.08
  -8  -4   3   28.86   11.93
   8   4  -3   38.53   15.73
  -8  -4   2   16.69    5.19
   8   4  -2   25.95   10.10
  -8  -4   2    9.66    4.25
   8   4  -2    7.63    5.72
  -8  -4   2   14.08    9.89
   8   4  -2   10.40   11.30
   8   4  -1  114.57   19.10
  -8  -4   1  121.61   14.39
  -8  -4   1  118.73   18.99
   8   4  -1  128.26   21.27
  -8  -4   1  134.15   29.86
   8   4  -1  117.95   30.59
   8   4   0  246.29   27.57
  -8  -4   0  212.41   18.40
  -8  -4   0  217.44   27.38
   8   4   0  201.50   25.22
  -8  -4   0  202.15   37.31
   8   4   0  216.49   47.88
  -8  -4  -1  141.61   14.34
  -8  -4  -1  137.40   21.72
   8   4   1  137.79   19.95
  -8  -4  -1  114.05   29.59
   8   4   1  155.51   44.01
  -8  -4  -2  125.54   13.28
  -8  -4  -2  138.34   35.12
  -8  -4  -2  134.96   23.03
  -8  -4  -3  716.90   79.66
   8   4   3  737.11  110.66
  -8  -4  -3  713.39   56.57
  -8  -4  -4  307.83   22.45
   8   4   4  305.66   69.24
  -8  -4  -5   90.78   26.64
  -8  -4  -5   81.82   12.19
   8   4   5  120.29   40.70
  -8  -4  -5   86.89   18.63
  -8  -4  -5   87.19   10.46
  -8  -4  -6    4.13    5.71
  -8  -4  -6   10.85    5.08
   8   4   6   16.71   24.67
  -8  -4  -6    3.80    6.71
  -8  -4  -6    8.47    3.22
  -8  -4  -6    1.49    8.28
  -8  -4  -6    4.80    2.67
  -8  -4  -7  607.16   37.25
  -8  -4  -7  561.22   59.74
   8   4   7  635.81   81.43
  -8  -4  -7  564.61   41.90
  -8  -4  -7  596.23   33.45
  -8  -4  -7  546.36   55.17
  -8  -4  -7  604.94   32.94
  -8  -4  -8   57.87   16.72
  -8  -4  -8   51.87   10.52
  -8  -4  -8   43.72   12.09
  -8  -4  -8   46.84    9.32
  -8  -4  -8   55.52   18.12
  -8  -4  -8   56.82   10.43
  -8  -4  -9  276.34   25.65
  -8  -4  -9  311.25   24.71
  -8  -4  -9  269.47   35.84
  -8  -4 -10  205.59   21.27
  -8  -4 -10  165.59   19.75
  -8  -4 -10  185.29   28.76
  -8  -4 -11  318.15   29.78
  -8  -4 -11  362.77   28.09
  -8  -4 -11  306.08   27.55
  -8  -4 -12   21.74    6.24
  -8  -4 -12   21.21    7.00
  -8  -4 -12   12.63    5.42
  -8  -4 -12   15.96    6.74
  -8  -4 -12   15.05    3.68
  -8  -4 -13  518.56   30.56
  -8  -4 -13  503.91   32.68
  -8  -4 -13  454.99   34.37
  -8  -4 -13  502.52   33.85
  -8  -4 -13  490.89   30.07
  -8  -4 -14  140.72   13.28
  -8  -4 -14  132.39   14.91
  -8  -4 -14  142.00   16.87
  -8  -4 -14  140.00   15.37
  -8  -4 -14  134.09   13.24
  -8  -4 -15  221.76   15.03
  -8  -4 -15  275.23   20.86
  -8  -4 -15  219.65   16.70
  -8  -4 -15  235.02   17.58
  -8  -4 -15  216.34   15.24
  -8  -4 -16  117.80   10.90
  -8  -4 -16   96.93    9.10
  -8  -4 -17  195.77   11.91
  -8  -4 -17  177.26   10.49
   8   5 -10   17.27    3.38
   8   5 -10   12.83    3.03
   8   5  -9   79.20    9.43
   8   5  -9   80.17    9.53
   8   5  -8   30.20    6.63
   8   5  -8   33.02    7.07
   8   5  -8   48.20    8.65
   8   5  -7   84.74   13.76
   8   5  -7   90.85   13.58
  -8  -5   7   77.66   10.90
   8   5  -7   89.68   15.67
   8   5  -7  106.97   14.79
   8   5  -6   -4.59    2.59
  -8  -5   6    4.94    4.59
   8   5  -6    2.42    4.64
   8   5  -6   -0.69    5.61
  -8  -5   5    3.84    5.31
   8   5  -5    0.65    3.47
   8   5  -5    6.50    6.97
   8   5  -4  178.17   20.99
  -8  -5   4  190.84   21.58
   8   5  -4  194.25   25.46
  -8  -5   3   -2.12    7.08
   8   5  -3   -2.13    5.52
   8   5  -3    2.91    5.20
   8   5  -3   -1.53    9.97
  -8  -5   3    2.96    2.42
  -8  -5   3    9.08    7.82
  -8  -5   2   69.57   13.54
   8   5  -2   87.24   14.95
  -8  -5   2   89.83   23.23
  -8  -5   2   77.46   13.31
   8   5  -2   75.93   25.09
  -8  -5   1   22.03    6.53
   8   5  -1   19.00    7.10
  -8  -5   1   19.40   10.18
  -8  -5   1    7.03    5.28
  -8  -5   1   33.48   16.67
   8   5  -1    4.69    5.89
   8   5   0  144.63   20.73
  -8  -5   0  113.22   13.61
  -8  -5   0   93.67   15.37
  -8  -5   0  111.49   18.57
  -8  -5   0  122.21   30.70
   8   5   0  110.07   31.73
   8   5   1  216.70   27.48
  -8  -5  -1  139.42   14.82
  -8  -5  -1  131.42   17.69
  -8  -5  -1  152.14   23.38
  -8  -5  -1  147.43   33.48
   8   5   1  205.41   50.63
  -8  -5  -2   62.04    9.85
  -8  -5  -2   38.47   11.34
  -8  -5  -2   59.90   11.67
  -8  -5  -2   48.80   18.82
  -8  -5  -3   34.90    6.72
  -8  -5  -3   29.11   11.98
   8   5   3   19.77   13.91
  -8  -5  -3   42.37   12.72
   8   5   4   18.72   22.65
  -8  -5  -4   38.80   13.23
  -8  -5  -5  139.92   16.08
  -8  -5  -5  144.51   34.78
   8   5   5  140.69   41.63
  -8  -5  -5  136.63   22.93
  -8  -5  -5  137.13   27.77
  -8  -5  -6   61.06   18.83
  -8  -5  -6   63.78   11.03
   8   5   6   54.64   24.64
  -8  -5  -6   51.13   11.68
  -8  -5  -6   52.58    9.11
  -8  -5  -6   53.58    8.82
  -8  -5  -7  113.94   15.00
  -8  -5  -7  133.84   28.62
   8   5   7  129.61   37.10
  -8  -5  -7   93.09   16.57
  -8  -5  -7  107.14   13.59
  -8  -5  -7  110.27   13.04
  -8  -5  -8    6.50    6.12
   8   5   8    2.43   12.37
  -8  -5  -8   -3.05    3.67
  -8  -5  -8    6.08    4.39
  -8  -5  -8    8.64    4.50
  -8  -5  -9   54.54   10.78
  -8  -5  -9   55.23   18.06
  -8  -5  -9   72.95   12.44
   8   5   9   58.40   18.48
  -8  -5  -9   68.35   11.12
  -8  -5  -9   68.31   12.00
  -8  -5 -10   91.06   14.02
  -8  -5 -10  101.99   13.78
  -8  -5 -10   78.38   18.98
  -8  -5 -10  114.51   16.02
  -8  -5 -11   29.78    7.65
  -8  -5 -11   31.25    7.03
  -8  -5 -11   48.71   10.57
  -8  -5 -11   47.23    8.72
  -8  -5 -12   44.62   10.23
  -8  -5 -12   52.03    9.61
  -8  -5 -12   44.04    9.83
  -8  -5 -12   51.08    8.98
  -8  -5 -13  102.13   12.34
  -8  -5 -13  119.53   15.54
  -8  -5 -13  104.67   12.08
  -8  -5 -14    1.26    1.24
  -8  -5 -14    2.92    3.63
  -8  -5 -14    2.75    1.13
  -8  -5 -15  109.82   12.09
  -8  -5 -15   91.20    9.93
  -8  -5 -16    0.82    1.56
  -8  -5 -16    4.91    2.98
  -8  -5 -16    1.36    1.33
  -8  -5 -17    2.04    1.66
  -8  -5 -17    1.56    1.37
  -8  -5 -17   -0.86    1.41
   8   6 -10    3.15    1.92
   8   6 -10    0.15    0.70
   8   6 -10    3.07    1.97
  -8  -6   9  222.04   13.93
   8   6  -9  244.09   16.03
   8   6  -9  274.46   16.51
  -8  -6   8  180.27   15.06
   8   6  -8  194.43   17.63
   8   6  -8  178.36   15.55
   8   6  -7  744.69   41.64
  -8  -6   7  735.32   39.40
   8   6  -7  720.60   42.84
   8   6  -7  767.66   41.13
   8   6  -6    4.31    5.02
  -8  -6   6    1.27    2.96
   8   6  -6   10.77    5.15
   8   6  -6   10.39    7.04
   8   6  -6    4.00    4.06
  -8  -6   5   98.20   16.77
   8   6  -5  135.12   17.87
   8   6  -5  129.32   20.92
   8   6  -5  155.61   19.74
  -8  -6   4    7.81    5.49
   8   6  -4   16.40    6.18
   8   6  -4    9.70    6.28
  -8  -6   3   24.59    9.32
   8   6  -3   22.73    7.50
   8   6  -3    8.38    7.67
   8   6  -3   21.20   10.96
  -8  -6   3   25.49    8.93
   8   6  -2  308.49   29.06
  -8  -6   2  364.36   30.56
  -8  -6   2  331.63   38.76
   8   6  -2  325.34   35.38
  -8  -6   2  313.99   29.64
  -8  -6   2  284.70   43.51
   8   6  -2  258.93   43.23
   8   6  -1  686.52   44.91
  -8  -6   1  651.04   39.42
  -8  -6   1  583.39   48.78
   8   6  -1  477.88   44.51
  -8  -6   1  743.88   50.40
   8   6  -1  640.46   75.66
  -8  -6   1  605.03   70.46
  -8  -6   0   52.50    9.40
   8   6   0   50.21   11.50
  -8  -6   0   52.91   12.94
  -8  -6   0   78.27   25.77
  -8  -6   0   54.77   14.01
   8   6   0   49.38   25.88
   8   6   1  174.58   23.08
  -8  -6  -1  202.40   18.12
  -8  -6  -1  172.09   25.42
  -8  -6  -1  162.82   22.30
  -8  -6  -1  202.47   39.94
   8   6   1  221.98   53.91
   8   6   2  203.84   26.49
  -8  -6  -2  159.10   15.73
  -8  -6  -2  120.51   23.36
  -8  -6  -2  136.45   20.11
  -8  -6  -2  131.70   36.68
  -8  -6  -3   15.14    4.99
  -8  -6  -3   17.97   18.67
   8   6   3    5.99   15.32
  -8  -6  -3   15.82   10.07
  -8  -6  -3   13.97    7.74
   8   6   4    5.61   31.70
  -8  -6  -4    8.42    9.71
  -8  -6  -5   42.72   24.15
   8   6   5   46.63   33.21
  -8  -6  -5   43.52   13.36
  -8  -6  -5   46.44    9.62
  -8  -6  -5   59.32   18.34
  -8  -6  -6  395.14   55.44
  -8  -6  -6  445.41   29.83
  -8  -6  -6  450.69   52.42
  -8  -6  -6  402.48   25.96
  -8  -6  -7  149.98   20.30
  -8  -6  -7  130.73   30.15
   8   6   7  165.58   43.03
  -8  -6  -7  158.59   17.27
  -8  -6  -7  167.23   15.97
  -8  -6  -8   45.68    9.11
  -8  -6  -8   68.03   22.09
  -8  -6  -8   47.89   11.90
   8   6   8   50.93   22.99
  -8  -6  -8   62.07   10.15
  -8  -6  -8   52.89    9.29
  -8  -6  -9    3.54    2.76
  -8  -6  -9    0.65    3.48
   8   6   9    4.13   10.99
  -8  -6  -9    8.38    7.60
  -8  -6  -9    3.63    3.16
  -8  -6  -9    6.31    5.27
  -8  -6  -9    1.81    2.01
  -8  -6 -10  599.56   37.86
  -8  -6 -10  718.82   41.89
  -8  -6 -10  663.09   63.30
  -8  -6 -10  731.81   44.21
  -8  -6 -10  650.61   35.21
  -8  -6 -11   50.95   10.79
  -8  -6 -11   61.03   10.87
  -8  -6 -11   39.56   10.15
  -8  -6 -11   47.30   10.84
  -8  -6 -11   51.93    8.92
  -8  -6 -12   11.33    2.92
  -8  -6 -12   13.71    4.06
  -8  -6 -12   15.91    6.87
  -8  -6 -12   12.67    6.47
  -8  -6 -12   24.96    5.71
  -8  -6 -13   63.92   12.02
  -8  -6 -13   58.75   11.93
  -8  -6 -13   57.42   10.11
  -8  -6 -13   51.08    7.01
  -8  -6 -14  421.07   28.12
  -8  -6 -14  436.83   28.96
  -8  -6 -14  436.07   25.98
  -8  -6 -15    4.85    2.47
  -8  -6 -15    6.05    3.44
  -8  -6 -15    3.95    2.39
  -8  -6 -16   41.19    5.87
  -8  -6 -16   43.41    6.62
  -8  -6 -16   38.08    4.59
  -8  -6 -17    0.90    0.48
   8   7 -10    7.11    1.68
   8   7  -9  164.29   13.69
  -8  -7   9  142.34   10.68
   8   7  -9  151.67   10.90
   8   7  -9  139.68   10.00
  -8  -7   8  155.08   13.91
   8   7  -8  176.01   15.06
   8   7  -8  148.56   12.44
   8   7  -7  534.96   33.09
  -8  -7   7  514.13   31.87
   8   7  -7  549.11   34.22
   8   7  -7  508.35   28.94
   8   7  -6    5.32    2.60
  -8  -7   6   11.66    5.00
   8   7  -6    5.78    4.43
   8   7  -6   -1.50    4.09
  -8  -7   5  115.43   18.73
   8   7  -5   93.73   14.96
   8   7  -5  114.90   15.80
   8   7  -5  128.48   16.22
  -8  -7   4   55.54   14.62
   8   7  -4   46.15   10.97
   8   7  -4   50.23   11.74
   8   7  -3  147.29   19.36
  -8  -7   3  151.82   20.35
  -8  -7   3  174.43   23.95
  -8  -7   3  110.06   25.24
   8   7  -3  154.41   20.90
  -8  -7   3  159.67   20.80
   8   7  -3  136.12   28.88
   8   7  -2  181.89   21.51
  -8  -7   2  192.09   23.50
  -8  -7   2  195.61   23.03
  -8  -7   2  172.74   29.53
  -8  -7   2  204.23   40.29
   8   7  -2  218.95   25.73
  -8  -7   2  166.58   21.53
   8   7  -2  123.94   29.98
   8   7  -1  607.25   42.36
  -8  -7   1  634.74   45.56
  -8  -7   1  634.41   40.46
  -8  -7   1  608.85   53.92
   8   7  -1  706.82   49.92
  -8  -7   1  724.89   51.46
  -8  -7   1  743.43   81.24
   8   7  -1  601.25   75.86
   8   7   0  158.86   21.20
  -8  -7   0  181.23   22.97
  -8  -7   0  164.85   17.87
  -8  -7   0  153.02   24.72
  -8  -7   0  186.59   39.11
  -8  -7   0  207.93   42.23
  -8  -7   0  198.02   25.80
   8   7   0  189.42   48.70
   8   7   1  185.41   22.65
  -8  -7  -1  192.63   22.73
  -8  -7  -1  191.87   18.26
  -8  -7  -1  155.60   23.95
  -8  -7  -1  202.71   37.98
  -8  -7  -1  190.27   27.09
  -8  -7  -1  135.89   34.61
   8   7   1  234.99   65.74
   8   7   2  392.91   36.19
  -8  -7  -2  276.42   31.81
  -8  -7  -2  375.87   50.79
  -8  -7  -2  297.55   35.90
  -8  -7  -2  298.90   56.93
   8   7   3  223.90   29.43
  -8  -7  -3  137.29   38.87
  -8  -7  -3  151.90   25.68
   8   7   3  214.82   91.10
  -8  -7  -3  197.26   34.79
   8   7   4   -7.72   19.16
  -8  -7  -4    7.19    7.52
  -8  -7  -5  101.94   30.52
  -8  -7  -5   98.32   20.01
   8   7   5  177.83   60.96
  -8  -7  -5  108.10   25.43
  -8  -7  -6  595.79   46.22
  -8  -7  -6  606.16   72.17
  -8  -7  -6  549.65   60.70
  -8  -7  -6  558.95   31.66
  -8  -7  -7  181.11   23.27
   8   7   7  172.60   43.88
  -8  -7  -7  178.23   39.77
  -8  -7  -7  179.16   19.05
  -8  -7  -7  180.00   17.28
   8   7   8   75.94   27.51
  -8  -7  -8   47.58   12.22
  -8  -7  -8   35.09   11.39
  -8  -7  -8   48.33   10.41
  -8  -7  -8   48.32    8.80
  -8  -7  -8   42.93    8.43
  -8  -7  -9   50.89   18.02
   8   7   9   33.42   15.91
  -8  -7  -9   51.66   11.31
  -8  -7  -9   66.68   12.33
  -8  -7  -9   47.44    8.01
  -8  -7  -9   71.77   12.39
  -8  -7 -10  812.77   46.93
  -8  -7 -10  749.49   70.76
  -8  -7 -10  794.64   48.16
  -8  -7 -10  775.15   44.19
  -8  -7 -10  638.65   34.96
  -8  -7 -11   93.29   13.83
  -8  -7 -11  106.32   17.10
  -8  -7 -11  103.20   15.03
  -8  -7 -11   83.55   10.42
  -8  -7 -12    4.96    4.84
  -8  -7 -12    9.86    4.44
  -8  -7 -12    7.78    4.57
  -8  -7 -12    6.47    3.00
  -8  -7 -13   33.36    8.01
  -8  -7 -13   18.77    4.80
  -8  -7 -13   29.71    5.69
  -8  -7 -13   21.39    4.19
  -8  -7 -14  546.20   31.23
  -8  -7 -14  523.05   29.92
  -8  -7 -14  484.20   26.01
  -8  -7 -14  437.69   21.78
  -8  -7 -15   20.88    5.19
  -8  -7 -15   20.32    5.01
  -8  -7 -16   71.05    7.14
  -8  -7 -16   78.72    8.08
  -8  -7 -16   67.91    7.33
   8   8  -9   78.41    8.57
  -8  -8   9   67.96    7.05
   8   8  -8    1.31    1.72
  -8  -8   8    1.23    2.17
  -8  -8   7   84.91   11.69
   8   8  -7   97.58   12.28
   8   8  -7   86.58    9.09
   8   8  -6   71.83   11.57
  -8  -8   6   70.77   12.68
   8   8  -6   69.94   11.65
   8   8  -6   72.91    9.27
  -8  -8   5   52.18   10.54
  -8  -8   5   43.38   11.95
   8   8  -5   47.35   10.66
  -8  -8   5   33.48   14.85
   8   8  -5   49.53    8.79
   8   8  -4  188.32   21.42
  -8  -8   4  221.08   23.77
  -8  -8   4  213.69   28.25
  -8  -8   4  185.83   32.89
   8   8  -4  205.73   20.87
  -8  -8   3   47.98   13.70
  -8  -8   3   47.33   11.47
   8   8  -3   40.09   10.04
  -8  -8   3   40.44   16.29
  -8  -8   3   38.40   10.27
   8   8  -3   36.64   16.14
  -8  -8   2   62.32   13.74
  -8  -8   2   64.46   14.60
   8   8  -2   33.97    8.72
  -8  -8   2   64.62   19.83
  -8  -8   2   42.41   18.69
   8   8  -2   58.09   20.33
  -8  -8   2   53.71   12.52
   8   8  -1  108.93   16.98
  -8  -8   1  159.34   23.60
  -8  -8   1  126.38   17.13
  -8  -8   1  145.02   26.70
  -8  -8   1  128.16   29.47
  -8  -8   1  133.53   35.13
   8   8  -1  150.36   37.35
  -8  -8   1  142.44   23.21
  -8  -8   0   72.84   12.23
  -8  -8   0   78.31   16.87
   8   8   0   80.12   15.29
  -8  -8   0   77.82   26.01
   8   8   0   74.31   34.14
  -8  -8   0   86.22   17.98
  -8  -8   0   51.75   15.31
  -8  -8   0   75.38   24.82
   8   8   1  281.18   28.43
  -8  -8  -1  334.80   30.52
  -8  -8  -1  333.63   59.95
  -8  -8  -1  305.99   38.44
  -8  -8  -1  269.19   34.00
  -8  -8  -1  296.86   46.73
  -8  -8  -1  275.98   35.73
  -8  -8  -2    6.73    3.03
   8   8   2   16.11    5.95
  -8  -8  -2    2.66    9.47
  -8  -8  -2    6.86   13.46
  -8  -8  -2   12.81    8.32
  -8  -8  -2   18.34   12.34
  -8  -8  -2    4.02    5.71
  -8  -8  -3    4.65    3.69
  -8  -8  -3   20.41   11.47
   8   8   3  -37.22   43.96
  -8  -8  -3   10.53   23.66
  -8  -8  -3    7.99    7.89
  -8  -8  -3    9.88   15.62
  -8  -8  -3   -1.28    8.06
  -8  -8  -4  114.15   15.17
  -8  -8  -4   86.97   25.07
  -8  -8  -5   -3.71   13.00
   8   8   5    8.93   31.19
  -8  -8  -5    6.40   10.66
  -8  -8  -5   14.14    4.76
  -8  -8  -6  451.68   42.43
  -8  -8  -6  481.15   69.91
  -8  -8  -6  427.00   31.39
  -8  -8  -6  382.96   25.96
  -8  -8  -7   21.17   17.42
   8   8   7   30.06   17.83
  -8  -8  -7   22.06    9.69
  -8  -8  -7   25.02    6.87
  -8  -8  -7   10.43    3.84
  -8  -8  -8    7.34   10.89
   8   8   8    2.73    9.67
  -8  -8  -8    1.82    4.19
  -8  -8  -8   -2.19    3.33
  -8  -8  -8    1.48    2.09
  -8  -8  -8   -0.59    3.94
  -8  -8  -8    2.78    2.14
  -8  -8  -9    4.62    7.34
   8   8   9   10.75    3.70
  -8  -8  -9   -0.85    3.93
  -8  -8  -9    4.36    3.54
  -8  -8  -9    3.82    2.31
  -8  -8  -9    2.39    5.04
  -8  -8  -9    3.60    4.26
  -8  -8  -9    9.49    5.13
  -8  -8 -10   48.55   11.38
  -8  -8 -10   63.50   14.46
  -8  -8 -10   77.81   12.42
  -8  -8 -10   41.48    7.81
  -8  -8 -11  112.44   15.68
  -8  -8 -11  146.52   19.81
  -8  -8 -11  135.89   15.29
  -8  -8 -11   89.56   11.41
  -8  -8 -12    3.96    2.90
  -8  -8 -12   -0.70    3.45
  -8  -8 -12    0.80    2.09
  -8  -8 -13   36.30    8.59
  -8  -8 -13   41.89    8.95
  -8  -8 -13   40.96    6.77
  -8  -8 -14   40.05    7.11
  -8  -8 -14   38.18    7.25
  -8  -8 -15   62.60    7.53
  -8  -8 -15   63.38    7.58
  -8  -8 -16    5.80    1.79
  -8  -8 -16    5.97    2.36
   8   9  -9   29.32    4.87
  -8  -9   9   30.15    4.45
   8   9  -8  176.78   14.36
  -8  -9   8  156.24   12.73
   8   9  -7    0.31    1.03
  -8  -9   7    4.46    3.67
   8   9  -6   10.08    3.83
  -8  -9   6   21.66    7.38
   8   9  -5  232.54   22.54
  -8  -9   5  251.64   22.27
  -8  -9   5  256.88   27.23
   8   9  -4  575.05   38.76
  -8  -9   4  691.12   44.10
  -8  -9   4  658.66   47.42
  -8  -9   4  564.00   61.81
  -8  -9   3   -0.88    4.13
  -8  -9   3    7.49    7.54
   8   9  -3   -0.68    3.37
  -8  -9   3   15.03   10.08
  -8  -9   2    4.93    3.42
  -8  -9   2    5.48    6.78
   8   9  -2    4.91    6.10
  -8  -9   2    1.13    6.00
  -8  -9   2    9.45   13.12
   8   9  -2    6.44   10.02
  -8  -9   2    1.76    4.36
  -8  -9   1  128.98   23.15
   8   9  -1   91.60   15.05
   8   9  -1  102.58   33.61
  -8  -9   1  111.88   38.59
  -8  -9   1  102.81   22.97
  -8  -9   1  112.16   24.67
  -8  -9   1  112.35   21.71
   8   9   0  210.12   24.27
  -8  -9   0  213.14   27.78
  -8  -9   0  138.46   41.35
  -8  -9   0  172.51   28.06
  -8  -9   0  170.19   30.46
  -8  -9   0  187.02   27.86
   8   9   1  283.73   28.06
  -8  -9  -1  282.19   28.36
  -8  -9  -1  260.45   22.35
  -8  -9  -1  309.88   62.20
   8   9   1  413.35   95.63
  -8  -9  -1  236.65   33.66
  -8  -9  -1  261.10   35.63
  -8  -9  -1  263.68   44.37
  -8  -9  -1  299.62   37.84
  -8  -9  -2   39.05    8.55
  -8  -9  -2   42.12   29.67
  -8  -9  -2   60.01   21.42
  -8  -9  -2   25.12   10.59
  -8  -9  -2   49.80   21.20
  -8  -9  -2   26.07   11.61
  -8  -9  -3  328.63   24.44
  -8  -9  -3  298.47   66.55
  -8  -9  -3  323.17   43.29
  -8  -9  -3  333.91   28.79
  -8  -9  -3  389.82   45.20
  -8  -9  -4  303.75   26.99
  -8  -9  -4  280.02   33.62
  -8  -9  -5    7.81   16.68
  -8  -9  -5   32.16   15.52
  -8  -9  -5   23.90    8.57
  -8  -9  -6   -3.52   22.37
   8   9   6   27.93   18.18
  -8  -9  -6   10.46    7.31
  -8  -9  -6   19.17    7.57
  -8  -9  -6   15.40    7.05
  -8  -9  -7  436.42   42.21
  -8  -9  -7  414.40   66.98
   8   9   7  554.35   92.01
  -8  -9  -7  418.43   32.65
  -8  -9  -7  291.20   23.52
  -8  -9  -8   80.02   18.15
   8   9   8  112.05   33.77
  -8  -9  -8  109.80   33.36
  -8  -9  -8   96.91   15.90
  -8  -9  -8   96.61   13.66
  -8  -9  -8  108.48   17.76
  -8  -9  -8   66.13   10.85
  -8  -9  -9  102.16   17.18
  -8  -9  -9  108.69   34.16
   8   9   9   81.30   24.32
  -8  -9  -9  105.14   16.01
  -8  -9  -9   91.68   12.51
  -8  -9  -9   72.50   10.92
  -8  -9 -10   23.40    6.77
  -8  -9 -10   21.14    5.13
  -8  -9 -10   23.15    6.36
  -8  -9 -11  357.56   28.06
  -8  -9 -11  387.80   33.08
  -8  -9 -11  401.63   23.78
  -8  -9 -11  367.32   24.39
  -8  -9 -12    1.47    2.50
  -8  -9 -12    5.42    5.67
  -8  -9 -12    7.76    3.36
  -8  -9 -13  283.39   20.62
  -8  -9 -14   74.60    8.67
  -8  -9 -14   81.89    8.38
  -8  -9 -15   -1.13    1.42
  -8  -9 -15  123.97    8.61
   8  10  -8  118.27   10.32
  -8 -10   8  104.12    9.11
  -8 -10   7    1.04    1.70
   8  10  -7    2.43    1.61
  -8 -10   6   -3.20    3.65
   8  10  -5  127.31   15.14
  -8 -10   5  123.85   14.33
  -8 -10   5  128.77   17.87
   8  10  -5  119.96   13.78
   8  10  -4  738.36   42.29
  -8 -10   4  724.20   43.66
  -8 -10   4  664.62   44.61
  -8 -10   3  110.19   17.66
   8  10  -3  111.41   16.23
  -8 -10   3  122.97   28.71
  -8 -10   2   77.85   18.10
   8  10  -2   88.46   14.23
   8  10  -2   49.71   18.16
  -8 -10   2  117.23   40.08
  -8 -10   2   74.61   21.26
  -8 -10   1  152.37   24.20
   8  10  -1   88.07   14.39
  -8 -10   1  123.28   16.90
  -8 -10   1  126.18   26.52
  -8 -10   1  194.00   55.49
   8  10  -1  130.72   35.37
  -8 -10   1   97.95   24.21
  -8 -10   1  125.50   21.23
   8  10   0  380.42   31.80
  -8 -10   0  475.57   41.18
  -8 -10   0  461.47   33.15
  -8 -10   0  419.25   78.45
  -8 -10   0  450.25   50.40
   8  10   0  548.58   88.46
  -8 -10   0  490.98   53.83
  -8 -10   0  455.95   37.15
  -8 -10   0  524.33   52.97
  -8 -10  -1   45.42    9.05
   8  10   1   63.29   14.10
  -8 -10  -1   51.68   17.73
  -8 -10  -1   28.43   13.15
  -8 -10  -1   34.48    9.81
  -8 -10  -1   55.97   17.20
  -8 -10  -1   39.83   12.23
  -8 -10  -2  109.93   15.77
  -8 -10  -2  113.68   13.96
  -8 -10  -2  120.26   30.30
  -8 -10  -2   86.23   28.65
  -8 -10  -2  107.83   16.31
  -8 -10  -2   78.95   19.25
  -8 -10  -2  161.97   30.96
  -8 -10  -3  988.14   46.84
  -8 -10  -3  975.50   82.84
  -8 -10  -3 1092.80  142.24
  -8 -10  -3  936.73   52.47
  -8 -10  -3 1131.02   82.39
  -8 -10  -4  223.11   25.15
  -8 -10  -4  267.40   34.37
  -8 -10  -5   71.73   19.85
  -8 -10  -5  103.22   46.20
  -8 -10  -5   76.06   13.39
  -8 -10  -5   91.46   18.21
  -8 -10  -6  124.45   24.50
  -8 -10  -6  129.76   44.08
  -8 -10  -6  135.03   18.23
  -8 -10  -6   98.31   13.14
  -8 -10  -7  339.20   40.27
  -8 -10  -7  384.83   72.06
   8  10   7  471.92   86.22
  -8 -10  -7  319.61   29.29
  -8 -10  -7  236.50   20.86
  -8 -10  -8    6.04    5.49
   8  10   8   -3.06   12.01
  -8 -10  -8    3.40    9.02
  -8 -10  -8   -2.40    3.04
  -8 -10  -8    0.48    2.40
  -8 -10  -8   -4.05    6.14
  -8 -10  -8    1.96    2.24
  -8 -10  -9  354.21   57.48
  -8 -10  -9  384.59   34.56
  -8 -10  -9  397.23   30.28
  -8 -10  -9  250.49   21.40
  -8 -10  -9  306.91   24.42
  -8 -10 -10   52.20    9.89
  -8 -10 -10   53.05   11.60
  -8 -10 -10   55.79   10.05
  -8 -10 -10   45.38    8.39
  -8 -10 -11  207.20   18.72
  -8 -10 -11  196.65   17.15
  -8 -10 -12   35.24    6.95
  -8 -10 -12   33.09    6.13
  -8 -10 -12   35.71    5.97
  -8 -10 -13  196.13   15.91
  -8 -10 -13  183.58   12.84
  -8 -10 -14    0.31    0.54
  -8 -10 -14    0.49    1.43
  -8 -10 -15  122.77    8.69
  -8 -10 -15   -0.10    0.39
   8  11  -7   96.83    9.67
  -8 -11   7  100.83    9.99
  -8 -11   6    4.12    2.55
  -8 -11   5    2.43    2.32
   8  11  -4  110.68   14.38
  -8 -11   4  142.42   16.90
  -8 -11   3   15.42    6.31
  -8 -11   3   30.45    9.43
   8  11  -3   22.13    7.51
   8  11  -2  186.53   20.29
  -8 -11   2  205.74   25.64
  -8 -11   2  232.36   22.59
  -8 -11   2  211.47   22.27
  -8 -11   2  215.65   24.27
  -8 -11   1   18.25    6.32
  -8 -11   1    7.88    7.27
   8  11  -1   10.93    5.24
  -8 -11   1   32.07   22.32
   8  11  -1   15.52   15.18
  -8 -11   1    4.53    3.98
  -8 -11   1   -1.81    6.74
  -8 -11   1   15.11    4.38
  -8 -11   0   51.59   10.36
   8  11   0   44.66   10.57
  -8 -11   0   31.44    9.46
  -8 -11   0   32.43   12.33
  -8 -11   0   56.95   18.85
  -8 -11  -1   67.25   11.30
  -8 -11  -1   78.06   16.05
  -8 -11  -1  125.59   39.84
  -8 -11  -1   65.92   12.81
  -8 -11  -1   51.90   16.51
  -8 -11  -1  112.00   26.92
  -8 -11  -2    5.73    4.91
  -8 -11  -2    4.66    3.68
  -8 -11  -2   11.93   37.06
  -8 -11  -2    6.31    3.70
  -8 -11  -2   -2.01   13.22
  -8 -11  -3  173.07   16.68
  -8 -11  -3  156.10   31.84
  -8 -11  -3  203.26   70.46
  -8 -11  -3  165.91   20.67
  -8 -11  -3  184.17   31.17
  -8 -11  -4   86.34   15.01
  -8 -11  -4   87.35   18.76
  -8 -11  -5   33.08   26.82
  -8 -11  -5   42.07   10.28
  -8 -11  -5   44.39    8.31
  -8 -11  -5   41.29    8.31
  -8 -11  -6   -4.79   23.49
  -8 -11  -6   21.24    6.90
  -8 -11  -6   17.64    6.34
  -8 -11  -6    8.78    3.58
  -8 -11  -7   29.75   19.83
   8  11   7   45.83   21.46
  -8 -11  -7   27.14    8.92
  -8 -11  -7   24.38    5.72
  -8 -11  -7   14.61    4.82
   8  11   8   43.97   21.62
  -8 -11  -8   58.28   12.46
  -8 -11  -8   49.51    9.33
  -8 -11  -8   44.65   10.76
  -8 -11  -8   35.08    7.19
  -8 -11  -9   88.31   12.02
  -8 -11  -9  104.78   17.89
  -8 -11  -9  131.13   15.77
  -8 -11  -9   86.60   11.36
  -8 -11  -9   95.82   13.04
  -8 -11 -10   38.41    7.45
  -8 -11 -10   34.96    9.93
  -8 -11 -10   51.44    8.99
  -8 -11 -10   37.92    8.09
  -8 -11 -11    1.29    2.21
  -8 -11 -11    5.95    3.06
  -8 -11 -12   13.61    4.43
  -8 -11 -12   15.24    3.96
  -8 -11 -13   13.07    3.59
  -8 -11 -14   18.73    3.61
   8  12  -6   21.95    4.61
  -8 -12   5   21.06    4.81
  -8 -12   5   22.02    5.79
  -8 -12   4    8.00    5.29
  -8 -12   4    0.90    2.55
  -8 -12   3   70.39   11.16
  -8 -12   3   77.77   12.66
   8  12  -3   65.61   10.42
  -8 -12   2   88.41   14.31
   8  12  -2   97.80   13.43
  -8 -12   2  116.01   14.92
   8  12  -1  222.83   21.72
  -8 -12   1  282.30   22.60
  -8 -12   1  255.41   28.91
   8  12   0  111.30   15.32
  -8 -12   0  131.92   14.63
  -8 -12   0  137.57   17.35
  -8 -12   0  124.92   23.11
   8  12   1  121.30   16.47
  -8 -12  -1  125.45   17.45
  -8 -12  -1  144.09   15.01
  -8 -12  -1  149.29   20.09
  -8 -12  -1  126.57   24.31
  -8 -12  -2  111.45   15.89
  -8 -12  -2  121.59   13.94
  -8 -12  -2  118.94   16.48
  -8 -12  -2  147.04   29.36
  -8 -12  -3  100.82   42.56
  -8 -12  -3  113.39   17.00
  -8 -12  -3  106.03   21.89
  -8 -12  -4    8.48    5.78
  -8 -12  -4   11.93    5.72
  -8 -12  -4   14.25    5.80
  -8 -12  -4    9.75    5.92
  -8 -12  -5    0.73    4.45
  -8 -12  -5   12.91    4.70
  -8 -12  -5    4.19    3.66
  -8 -12  -6  503.21   37.45
  -8 -12  -6  439.90   29.47
  -8 -12  -6  485.13   28.65
  -8 -12  -7   26.36    8.63
  -8 -12  -7   34.47    8.69
  -8 -12  -7   26.63    6.95
  -8 -12  -8   31.89    9.34
  -8 -12  -8   43.53    8.24
  -8 -12  -8   27.45    6.78
  -8 -12  -9   15.57    7.21
  -8 -12  -9   11.53    4.18
  -8 -12  -9   16.80    5.19
  -8 -12 -10  261.77   24.53
  -8 -12 -10  305.89   20.88
  -8 -12 -10  272.98   19.68
  -8 -12 -11   24.13    5.43
  -8 -12 -12    6.70    2.65
  -8 -12 -12    3.17    1.14
  -8 -12 -13    9.10    2.43
  -8 -13   5    1.29    1.20
   8  13  -5    2.63    1.70
  -8 -13   4    0.33    1.79
  -8 -13   3   71.67   10.36
   8  13  -3   78.24    9.96
  -8 -13   3   75.32   10.35
  -8 -13   2   55.11   10.20
   8  13  -2   71.47   10.60
  -8 -13   2   77.71   10.40
   8  13  -1  274.39   22.30
  -8 -13   1  369.12   23.93
  -8 -13   1  339.18   29.47
   8  13   0  255.09   22.09
  -8 -13   0  302.30   25.11
  -8 -13   0  315.80   21.60
  -8 -13   0  264.52   30.13
   8  13   1  202.21   21.50
  -8 -13  -1  196.53   28.28
  -8 -13  -2  142.66   17.96
  -8 -13  -2  174.40   27.03
  -8 -13  -3  110.01   16.25
  -8 -13  -3  127.61   12.90
  -8 -13  -3  115.86   21.72
  -8 -13  -3  108.16   14.22
  -8 -13  -4   27.47    8.00
  -8 -13  -4   34.00    7.85
  -8 -13  -4   45.93   12.61
  -8 -13  -4   37.53    9.01
  -8 -13  -5    8.26    5.66
  -8 -13  -5    9.56    3.73
  -8 -13  -5    6.88    4.93
  -8 -13  -6  571.42   39.88
  -8 -13  -6  544.24   32.51
  -8 -13  -6  556.11   29.80
  -8 -13  -7  101.17   13.99
  -8 -13  -7  122.74   13.85
  -8 -13  -7  143.83   14.62
  -8 -13  -8   18.08    5.56
  -8 -13  -8   14.51    4.94
  -8 -13  -9   12.11    3.90
  -8 -13 -10  180.95   14.28
  -8 -13 -11    3.93    1.29
  -8 -13 -11   10.84    3.41
  -8 -14   3   -0.95    1.91
   8  14  -2   20.07    4.22
   8  14  -1   38.16    7.05
   8  14   0    8.85    3.58
  -8 -14   0   -3.62    4.71
   8  14   1  103.83   12.71
  -8 -14  -1  130.02   12.39
  -8 -14  -1  103.82   16.49
   8  14   2    7.38    4.36
  -8 -14  -2    5.26    2.53
  -8 -14  -2    6.99    5.67
  -8 -14  -3   25.60    5.22
  -8 -14  -3   27.27    9.64
  -8 -14  -3   25.23    6.38
  -8 -14  -4   11.18    3.96
  -8 -14  -4    2.49    2.65
  -8 -14  -5    5.37    5.62
  -8 -14  -5   10.00    3.60
  -8 -14  -5    5.74    4.82
  -8 -14  -6   74.52   11.88
  -8 -14  -6   75.21   10.04
  -8 -14  -6   73.84    8.64
  -8 -14  -7    1.09    2.12
  -8 -14  -8   -0.97    2.43
  -8 -14  -9   -0.22    0.77
  -8 -14  -9   17.29    3.77
  -8 -14 -10    0.73    0.66
  -8 -14 -10   32.98    4.85
   8  15   0   73.43    8.25
  -8 -15   0    0.18    0.66
   8  15   1   35.94    6.45
  -8 -15  -1   -0.79    1.49
   8  15   2   60.54    8.69
  -8 -15  -2    1.66    1.82
   8  15   3  317.43   21.01
  -8 -15  -3   -0.43    1.23
   8  15   4  172.70   16.74
  -8 -15  -4  151.97   12.86
  -8 -15  -5   22.14    5.33
  -8 -15  -6    4.02    2.80
  -8 -15  -7  101.33    9.46
   9  -7   1   30.45   11.09
  -9   7  -1   37.63    7.60
   9  -7   1   34.56    7.16
   9  -7   1   29.95    9.24
   9  -7   1   52.30   13.54
   9  -7   2   15.46   15.21
  -9   7  -2   11.64    5.12
   9  -7   2   20.62    9.26
   9  -7   2    7.07    6.95
   9  -7   2    1.43    2.04
  -9   7  -3  364.02   27.11
   9  -7   3  383.09   29.60
   9  -7   3  360.75   19.60
   9  -7   4   55.78    9.36
   9  -7   4   69.79    8.19
  -9   7  -5   63.64   10.13
   9  -7   5  110.07   31.32
  -9   7  -6   20.14    4.92
   9  -7   6   29.89   12.15
   9  -6  -2    1.73    1.82
   9  -6  -2   60.21    9.57
   9  -6  -1   -3.74    4.41
  -9   6   1    4.13    3.62
   9  -6  -1    7.78    4.02
   9  -6  -1   14.21    5.64
   9  -6   0  169.62   29.46
  -9   6   0  195.97   19.61
   9  -6   1  178.54   41.52
  -9   6  -1  114.56   15.82
   9  -6   2   -5.42   30.07
  -9   6  -2   -0.81    4.26
   9  -6   2    8.72    3.69
  -9   6  -3   49.92   12.72
   9  -6   3   47.39    7.12
  -9   6  -4   41.87   11.76
   9  -6   4  140.32   69.37
  -9   6  -5   36.59   10.74
   9  -6   5  106.52   53.47
  -9   6  -6  234.67   23.11
   9  -6   6  286.99   56.73
  -9   6  -7   10.21    2.99
   9  -6   7   33.90   18.19
  -9   6  -8  105.81   11.30
   9  -6   8  114.06   19.46
   9  -6   9    5.30    5.75
   9  -5  -4   19.28    4.09
   9  -5  -4   24.19    6.71
   9  -5  -3   21.59    6.08
   9  -5  -3   28.69    8.12
   9  -5  -2  136.60   16.03
   9  -5  -2   88.24   16.37
  -9   5   1  109.93   14.44
   9  -5  -1   55.61   17.89
   9  -5   0  540.53   70.53
  -9   5   0  549.33   38.31
   9  -5   1  349.66   80.08
  -9   5  -1  330.56   31.76
   9  -5   1  231.46   16.33
  -9   5  -2   -1.11    7.59
   9  -5   2   -8.61   62.74
  -9   5  -3    2.51    7.99
  -9   5  -4   95.46   20.67
   9  -5   4  349.70  184.88
   9  -5   5  121.88   79.09
   9  -5   6  855.64  123.37
  -9   5  -6  690.40   48.81
  -9   5  -7  202.23   21.59
   9  -5   7  173.34   42.39
   9  -5   8  308.00   44.31
  -9   5  -8  362.66   26.01
   9  -5   9   12.61   10.74
  -9   5  -9    2.20    2.53
  -9   5 -10   78.23    8.28
  -9   5 -11    0.95    1.20
   9  -4  -5   19.23    5.03
   9  -4  -5   21.97    5.17
   9  -4  -4    9.75    4.82
   9  -4  -4   16.65    6.76
   9  -4  -3    4.50    3.78
   9  -4  -3   11.56    5.08
   9  -4  -2   90.61   21.15
  -9   4   2  122.59   15.27
  -9   4   1   25.14    6.91
   9  -4  -1   35.66    9.60
   9  -4   0  288.63   62.97
  -9   4   0  307.02   30.15
   9  -4   1   97.87   46.98
  -9   4  -1   87.80   16.25
   9  -4   1  109.09   11.01
   9  -4   2   90.84   55.12
  -9   4  -2    1.31    6.05
  -9   4  -3   13.41    9.14
   9  -4   4   58.49  112.28
  -9   4  -4   25.74   15.76
   9  -4   5   51.56   74.68
   9  -4   6  522.25  108.54
  -9   4  -6  365.30   38.22
   9  -4   7   -7.84   22.93
  -9   4  -7   23.11    9.08
  -9   4  -8  360.18   23.97
   9  -4   8  322.91   56.39
  -9   4  -8  355.84   29.02
  -9   4  -9   -0.85    3.50
   9  -4   9    1.77    9.51
  -9   4  -9    0.99    2.65
   9  -4  10   23.00    9.61
  -9   4 -10   17.76    4.77
  -9   4 -11    9.83    3.60
  -9   4 -12   18.73    4.09
  -9   4 -12   16.85    3.71
  -9   4 -13  126.54    9.12
  -9   4 -13  137.19    8.85
   9  -3  -6    1.48    2.98
   9  -3  -6    1.03    1.57
   9  -3  -5  156.61   18.67
   9  -3  -5  200.80   21.17
   9  -3  -5  170.98   17.25
   9  -3  -4   60.98   13.09
   9  -3  -3   60.12   16.73
  -9   3   2  231.36   22.10
   9  -3  -2  244.04   25.56
   9  -3  -1    5.56   10.53
  -9   3   1   17.90    7.49
   9  -3   0   46.25   31.83
  -9   3   0   21.87    9.55
  -9   3  -1   20.91    9.78
  -9   3  -1   14.30   16.06
   9  -3   2   39.61   36.19
  -9   3  -2   22.72   12.28
  -9   3  -2   18.48   18.75
  -9   3  -3  684.30   68.07
  -9   3  -3  638.94  102.52
   9  -3   4  223.91   81.85
  -9   3  -4  130.58   29.41
   9  -3   5   86.84   56.99
  -9   3  -5  104.98   41.95
   9  -3   6   49.82   43.35
  -9   3  -6   50.97   15.04
  -9   3  -6   44.36   23.61
  -9   3  -7   61.27    9.40
   9  -3   7   73.16   38.55
  -9   3  -7   73.42   16.61
  -9   3  -7   65.55   25.25
  -9   3  -8  157.61   17.88
   9  -3   8  111.65   32.98
  -9   3  -8  146.34   20.03
   9  -3   9   95.98   28.27
  -9   3  -9  121.16   16.03
  -9   3  -9  111.52   15.70
  -9   3 -10   76.92   12.90
   9  -3  10   50.59   19.67
  -9   3 -10   64.54   10.34
  -9   3 -11  407.80   27.80
  -9   3 -12    7.29    3.32
  -9   3 -13   33.30    5.16
  -9   3 -13   35.29    5.76
  -9   3 -14   16.30    3.11
  -9   3 -14   11.42    2.43
   9  -2  -7   -0.63    1.54
   9  -2  -7    4.76    1.97
   9  -2  -6   24.27    6.60
   9  -2  -6   22.64    5.74
   9  -2  -6   18.07    3.93
   9  -2  -5  257.93   26.66
   9  -2  -5  296.58   19.13
   9  -2  -5  244.69   23.41
   9  -2  -4  370.98   23.64
   9  -2  -4  349.79   32.48
   9  -2  -4  316.23   31.50
   9  -2  -3  229.72   19.18
   9  -2  -3  239.02   26.74
   9  -2  -2  130.86   33.43
  -9   2   2  148.57   18.51
   9  -2  -2  164.39   22.13
   9  -2  -1  123.03   31.70
   9  -2  -1  139.08   25.24
  -9   2   1  141.26   19.50
   9  -2   0    5.77   11.65
  -9   2   0   24.95    9.24
   9  -2   1   24.58   28.23
  -9   2  -1    3.47    5.00
  -9   2  -1    2.98    4.91
   9  -2   2  139.94   54.82
  -9   2  -2   93.43   22.67
  -9   2  -2   46.64   20.14
  -9   2  -3 1223.62   89.78
  -9   2  -3 1082.04  132.16
  -9   2  -4  302.84   42.64
  -9   2  -4  212.54   55.92
   9  -2   5  148.61   41.76
  -9   2  -5  188.77   51.15
  -9   2  -6    1.74    2.15
   9  -2   6  -15.86   22.69
  -9   2  -6    6.86   10.13
  -9   2  -6   -3.55   16.84
  -9   2  -7  385.22   28.29
   9  -2   7  362.54   61.99
  -9   2  -7  491.02   43.83
  -9   2  -7  448.73   65.93
  -9   2  -8   18.88    8.10
   9  -2   8   14.42   13.10
  -9   2  -8   16.40    5.23
   9  -2   9   58.91   16.86
  -9   2  -9  106.42   17.18
  -9   2  -9  109.11   16.39
   9  -2  10  245.07   43.66
  -9   2 -10  300.67   29.59
  -9   2 -10  304.09   24.43
  -9   2 -11 1020.49   51.69
  -9   2 -12    6.99    3.66
  -9   2 -12    8.22    3.37
  -9   2 -13    0.96    1.82
  -9   2 -13    3.34    3.10
  -9   2 -14   33.71    5.20
  -9   2 -14   38.42    5.85
   9  -1  -8    4.44    1.63
   9  -1  -7   -0.40    3.11
   9  -1  -7    0.44    2.03
   9  -1  -7   -0.29    3.05
   9  -1  -7    0.49    1.64
   9  -1  -6    6.16    2.74
   9  -1  -6    3.54    2.54
   9  -1  -6    3.54    2.99
   9  -1  -5  252.65   21.75
   9  -1  -5  277.86   20.32
   9  -1  -5  263.80   27.30
   9  -1  -5  198.42   21.12
   9  -1  -4  229.21   21.80
   9  -1  -4  232.79   20.43
   9  -1  -4  245.09   28.33
   9  -1  -3   94.30   14.89
   9  -1  -3  162.90   18.72
   9  -1  -3  133.94   20.69
   9  -1  -3   73.38   20.65
   9  -1  -2  238.21   23.03
   9  -1  -2  316.81   28.30
  -9   1   2  265.62   25.50
   9  -1  -2  262.96   29.15
   9  -1  -2  258.96   40.04
   9  -1  -1   50.53   15.75
  -9   1   1   63.46   13.46
   9  -1  -1   67.22   15.52
   9  -1   0   21.97   15.83
  -9   1   0    0.96    4.98
   9  -1   1   83.83   26.17
  -9   1  -1   57.82   15.82
   9  -1   2  101.67   31.61
  -9   1  -2   74.18   19.96
  -9   1  -2   50.48   32.56
  -9   1  -3  604.55   59.35
  -9   1  -3  545.26   87.79
   9  -1   4  137.29   38.37
   9  -1   4  145.45   48.00
  -9   1  -4  101.22   24.00
  -9   1  -4   89.30   34.09
  -9   1  -5  127.32   13.30
   9  -1   5  184.89   49.22
   9  -1   5  233.60   74.78
  -9   1  -6  165.46   16.71
   9  -1   6  185.35   40.31
  -9   1  -6  157.46   26.92
  -9   1  -6  145.83   43.54
  -9   1  -7  177.40   19.73
   9  -1   7  189.92   39.68
   9  -1   7  268.20   73.68
  -9   1  -7  205.55   28.45
   9  -1   8  138.44   32.37
  -9   1  -8  114.67   17.23
  -9   1  -8  115.72   19.66
  -9   1  -9   36.84   11.69
   9  -1   9   11.80   15.98
  -9   1  -9   42.84   11.20
  -9   1 -10  151.67   20.16
  -9   1 -10  160.57   18.02
  -9   1 -11  835.38   48.26
  -9   1 -12    3.08    3.79
  -9   1 -13   10.73    3.70
  -9   1 -13    6.46    3.58
  -9   1 -13    9.47    3.39
  -9   1 -14   13.59    4.15
  -9   1 -14    8.10    2.16
  -9   1 -14   10.70    3.39
  -9   1 -15   41.08    5.46
   9   0  -8   78.12    9.12
   9   0  -8   79.58    9.37
   9   0  -8   70.04    7.86
   9   0  -8   66.59    7.49
   9   0  -7  177.94   18.35
   9   0  -7  196.40   19.47
   9   0  -7  158.04   14.40
   9   0  -7  171.71   14.16
   9   0  -6    7.86    4.73
   9   0  -6    9.04    4.40
   9   0  -6    7.36    4.11
   9   0  -5  100.73   13.96
   9   0  -5  103.99   13.35
   9   0  -5  103.26   17.78
   9   0  -5   70.62   12.27
   9   0  -4    1.94    4.70
   9   0  -4    4.96    4.74
   9   0  -4    0.94    4.66
   9   0  -3   -0.81    7.05
   9   0  -3    0.68    3.42
   9   0  -3   -2.83    8.37
   9   0  -3    4.34   11.23
   9   0  -2  308.37   28.16
   9   0  -2  316.85   40.43
  -9   0   2  354.57   30.35
   9   0  -2  341.81   33.26
  -9   0   2  337.24   42.73
   9   0  -1   49.27   14.05
  -9   0   1   42.88   11.49
   9   0  -1   55.42   12.67
   9   0  -1   51.13   16.84
   9   0   0  503.71   42.85
   9   0   0  436.80   51.50
  -9   0   0  414.80   39.04
   9   0   0  399.43   71.54
   9   0   1  293.80   47.22
  -9   0  -1  285.12   35.65
  -9   0  -2    6.98    5.05
   9   0   2   10.14   20.79
   9   0   2  -17.52   23.60
  -9   0  -3   33.76   13.15
   9   0   3    5.10   26.16
  -9   0  -4   29.88   12.93
  -9   0  -4   29.09    5.88
   9   0   4   75.39   28.37
   9   0   4  100.98   52.25
  -9   0  -5   82.28   10.84
   9   0   5  116.69   34.36
   9   0   5   96.63   51.66
   9   0   6  710.01   76.65
  -9   0  -6  778.06   60.71
  -9   0  -6  701.03   60.53
  -9   0  -6  674.99   38.02
  -9   0  -7   26.25   12.16
  -9   0  -7   39.87   13.16
  -9   0  -7   37.22    9.06
   9   0   7   27.14   17.38
   9   0   7   20.04   12.95
   9   0   8  685.71   68.75
  -9   0  -8  709.81   49.53
  -9   0  -8  613.93   43.00
   9   0   8  706.25  101.30
  -9   0  -9    0.57    5.29
  -9   0  -9   10.57    6.00
  -9   0  -9    4.92    6.24
   9   0   9    8.05    6.22
  -9   0  -9    5.11    8.06
  -9   0 -10    8.92    5.48
  -9   0 -10    4.78    5.61
  -9   0 -10    7.45    3.61
   9   0  10    8.74    5.90
  -9   0 -10    6.72    4.36
  -9   0 -11  142.97   18.53
  -9   0 -11  164.71   16.74
  -9   0 -12   -1.66    2.32
  -9   0 -12   -0.40    2.57
  -9   0 -13  195.49   17.51
  -9   0 -13  173.42   14.22
  -9   0 -13  148.51   15.16
  -9   0 -13  172.28   16.52
  -9   0 -14  157.37   11.94
  -9   0 -14  179.54   14.68
  -9   0 -14  180.90   15.48
  -9   0 -15    1.13    0.97
  -9   0 -15    0.58    0.80
  -9   0 -15    1.77    1.73
  -9   0 -16  121.76    8.43
  -9   0 -16  111.31    8.34
   9   1  -9    9.20    2.79
   9   1  -9   12.17    2.81
   9   1  -9    9.90    3.08
   9   1  -8  167.99   13.48
   9   1  -8  169.81   13.23
   9   1  -8  187.66   15.78
   9   1  -8  196.83   16.22
   9   1  -7  483.97   27.91
   9   1  -7  537.66   29.58
   9   1  -7  564.96   37.08
   9   1  -7  595.78   37.08
   9   1  -6   14.72    5.57
   9   1  -6   12.25    4.87
   9   1  -5   31.39    8.74
   9   1  -5   16.99    5.86
   9   1  -4  213.51   22.32
   9   1  -4  170.63   24.21
   9   1  -3   77.89   14.40
   9   1  -3  117.19   18.60
   9   1  -3   89.34   18.50
   9   1  -3   83.77   17.27
   9   1  -2  168.71   21.39
   9   1  -2  217.37   26.27
   9   1  -2  198.42   29.23
  -9  -1   2  185.78   21.60
   9   1  -2  185.59   24.39
  -9  -1   2  206.88   33.27
   9   1  -1  285.96   36.39
   9   1  -1  198.87   22.96
  -9  -1   1  236.50   26.49
   9   1  -1  254.52   28.09
  -9  -1   1  251.38   39.44
   9   1  -1  247.13   51.60
   9   1   0  950.32   72.48
  -9  -1   0  924.27   61.03
   9   1   0  902.68   54.82
  -9  -1   0  944.07   86.44
   9   1   0  805.56   94.25
  -9  -1  -1  376.25   40.93
   9   1   1  314.62   56.02
  -9  -1  -2   67.37   18.22
  -9  -1  -3    5.63    9.36
  -9  -1  -3    3.08    1.52
   9   1   3    3.99   10.56
  -9  -1  -4  251.39   36.58
  -9  -1  -4  275.26   19.80
  -9  -1  -5   27.69    6.82
   9   1   5   31.65   21.35
  -9  -1  -6 1035.09   70.74
  -9  -1  -6  836.01   69.39
  -9  -1  -6  873.89   45.34
   9   1   6  915.29  130.09
   9   1   7  294.03   42.86
  -9  -1  -7  262.11   32.28
  -9  -1  -7  238.08   34.77
  -9  -1  -7  258.47   24.63
   9   1   7  341.82   70.97
   9   1   8  838.52   70.26
  -9  -1  -8  820.61   47.39
  -9  -1  -8  888.24   56.35
  -9  -1  -8  795.09   66.10
  -9  -1  -8  898.47   53.68
  -9  -1  -8  862.88   79.45
  -9  -1  -9    0.62    3.72
  -9  -1  -9    1.49    3.40
  -9  -1  -9    3.74    4.01
   9   1   9   10.89    5.08
  -9  -1  -9   -1.66    7.27
  -9  -1 -10  177.93   19.51
   9   1  10  200.53   28.75
  -9  -1 -10  225.20   21.96
  -9  -1 -10  151.59   19.82
  -9  -1 -10  180.88   29.16
  -9  -1 -11    1.94    2.60
  -9  -1 -11    2.81    4.30
  -9  -1 -12   68.51   11.73
  -9  -1 -12   65.30   10.34
  -9  -1 -13  398.52   25.46
  -9  -1 -13  379.90   26.83
  -9  -1 -14  683.21   33.42
  -9  -1 -14  663.29   32.32
  -9  -1 -14  696.37   35.20
  -9  -1 -15   53.08    7.21
  -9  -1 -15   38.02    5.84
  -9  -1 -15   35.99    5.68
  -9  -1 -16   41.92    5.07
   9   2  -9   14.78    3.67
   9   2  -9   19.73    3.81
   9   2  -8  122.26   11.53
   9   2  -8  139.10   12.53
   9   2  -7  331.82   22.97
   9   2  -7  382.10   25.28
   9   2  -6   16.17    5.34
   9   2  -6   12.17    5.02
   9   2  -6   21.32   10.03
   9   2  -5   89.89   14.30
   9   2  -5  124.97   18.98
   9   2  -5   89.82   18.61
   9   2  -4   21.76    9.68
   9   2  -4   21.85    6.79
   9   2  -4   11.82    3.53
   9   2  -3    1.81    3.39
   9   2  -3   -2.16    2.39
   9   2  -3    1.87    5.40
   9   2  -3   12.65    8.39
   9   2  -2  285.82   32.69
   9   2  -2  277.90   28.23
  -9  -2   2  310.10   28.41
   9   2  -2  230.20   27.97
  -9  -2   2  325.41   40.82
   9   2  -2  280.28   50.36
   9   2  -1  169.09   21.70
  -9  -2   1  181.35   22.68
   9   2  -1  179.36   23.92
   9   2  -1  158.29   37.35
  -9  -2   1  171.95   32.53
  -9  -2   0  605.76   48.74
   9   2   0  520.35   40.67
  -9  -2   0  593.98   67.62
   9   2   0  537.92   68.35
  -9  -2  -1  387.01   39.79
   9   2   1  321.42   30.83
  -9  -2  -1  356.39   54.66
   9   2   1  334.27   53.23
  -9  -2  -2    8.87    8.25
  -9  -2  -2    8.32   19.35
  -9  -2  -3  172.31   30.20
   9   2   3  217.90   50.44
  -9  -2  -4   35.29   13.68
  -9  -2  -4   33.60    6.82
  -9  -2  -5  111.80   13.13
  -9  -2  -6  612.64   52.41
  -9  -2  -6  530.87   30.76
  -9  -2  -6  564.47   56.45
  -9  -2  -6  584.85   35.30
  -9  -2  -6  576.22   74.33
  -9  -2  -7   91.00   18.72
  -9  -2  -7   89.08   21.98
  -9  -2  -7  103.37   14.95
  -9  -2  -7  121.65   33.38
  -9  -2  -8  903.50   56.29
  -9  -2  -8  831.32   69.79
  -9  -2  -8  913.77   52.03
  -9  -2  -8  918.69   81.67
  -9  -2  -9   94.41   16.02
  -9  -2  -9   89.45   15.22
  -9  -2  -9   97.05   23.84
  -9  -2  -9   71.61   13.14
   9   2   9   94.71   18.63
   9   2   9  111.25   31.21
  -9  -2 -10   24.06    7.87
  -9  -2 -10   25.96    7.85
  -9  -2 -10   26.92    9.15
  -9  -2 -10   17.68    7.42
   9   2  10   20.88    8.49
  -9  -2 -11   59.36   11.61
  -9  -2 -11   60.62   11.95
  -9  -2 -12   75.69   13.09
  -9  -2 -13  413.56   27.26
  -9  -2 -13  408.41   28.42
  -9  -2 -13  343.50   26.09
  -9  -2 -13  352.99   20.51
  -9  -2 -13  384.51   26.06
  -9  -2 -14  404.11   24.33
  -9  -2 -14  411.70   26.18
  -9  -2 -14  392.05   25.95
  -9  -2 -14  358.22   23.51
  -9  -2 -15   64.24    7.84
  -9  -2 -15   65.65    8.36
  -9  -2 -15   60.11    7.81
  -9  -2 -15   62.63    8.00
  -9  -2 -16   90.30    7.70
  -9  -2 -16   90.88    8.48
  -9  -2 -16   84.90    7.81
  -9  -2 -16   89.48    7.96
   9   3  -9    0.69    1.18
   9   3  -9    2.48    2.03
   9   3  -8    3.42    2.60
   9   3  -8    0.42    3.04
   9   3  -8   -3.87    3.42
   9   3  -7   28.23    7.49
   9   3  -7   17.37    5.15
   9   3  -7   27.82    8.08
   9   3  -7   25.39    7.13
   9   3  -6    8.63    5.91
   9   3  -6    9.62    4.34
   9   3  -6    8.74    5.11
   9   3  -5  237.41   22.06
   9   3  -5  244.65   27.02
   9   3  -5  257.88   30.89
   9   3  -4  180.00   20.37
   9   3  -4  164.90   22.73
   9   3  -3  158.52   21.43
   9   3  -3  114.69   19.82
   9   3  -3  166.87   24.01
   9   3  -3  174.52   38.21
   9   3  -2  193.83   24.28
  -9  -3   2  193.15   21.86
   9   3  -2  172.18   24.48
  -9  -3   2  207.62   33.04
   9   3  -2  214.52   40.76
   9   3  -1  115.84   18.83
  -9  -3   1  113.55   18.82
   9   3  -1   97.37   16.78
  -9  -3   1  104.65   25.38
   9   3  -1   86.12   27.23
   9   3   0   47.07   10.96
  -9  -3   0   31.05    9.47
   9   3   0   32.39    8.89
  -9  -3   0   37.95   16.71
   9   3   0   45.54   19.40
  -9  -3  -1   21.27   11.19
   9   3   1   22.93    8.79
   9   3   1   29.23   12.90
  -9  -3  -1   38.55   18.89
  -9  -3  -2   35.49   13.89
   9   3   2   42.05   10.93
  -9  -3  -2   26.38   22.28
  -9  -3  -3  835.23   64.05
  -9  -3  -3  791.76   89.40
  -9  -3  -4  100.53   22.37
  -9  -3  -4   96.08   12.12
  -9  -3  -4   77.16   26.81
  -9  -3  -5  122.37   25.37
  -9  -3  -5  118.33   14.12
  -9  -3  -6  127.85   23.47
  -9  -3  -6  130.18   14.65
  -9  -3  -6  133.59   25.46
  -9  -3  -6  139.02   16.32
  -9  -3  -6  122.04   34.04
  -9  -3  -7  193.47   25.39
  -9  -3  -7  170.43   16.71
  -9  -3  -7  127.95   27.46
  -9  -3  -7  171.54   20.26
  -9  -3  -7  193.95   40.51
  -9  -3  -8  120.68   19.35
  -9  -3  -8  133.29   14.71
  -9  -3  -8  100.29   23.40
  -9  -3  -8  120.20   26.68
  -9  -3  -8  113.88   17.44
  -9  -3  -9   87.47   14.38
  -9  -3  -9   84.04   20.38
  -9  -3  -9   77.84   14.01
  -9  -3 -10  108.88   13.69
  -9  -3 -10  122.58   17.05
  -9  -3 -10  128.34   16.58
  -9  -3 -10  109.43   15.97
  -9  -3 -10  121.79   23.42
  -9  -3 -11  537.34   32.07
  -9  -3 -11  525.41   38.71
  -9  -3 -12    2.75    4.54
  -9  -3 -12    1.25    2.66
  -9  -3 -12    1.35    3.09
  -9  -3 -13   49.58    9.50
  -9  -3 -13   47.08    7.97
  -9  -3 -13   57.86   11.01
  -9  -3 -13   45.93    8.31
  -9  -3 -13   50.80    9.06
  -9  -3 -14   -1.08    2.53
  -9  -3 -14    0.29    1.57
  -9  -3 -14    3.35    4.12
  -9  -3 -14   -1.81    2.12
  -9  -3 -14   -1.47    3.34
  -9  -3 -15   27.71    5.39
  -9  -3 -15   30.53    6.41
  -9  -3 -15   25.28    5.38
  -9  -3 -15   24.84    5.13
  -9  -3 -16  170.98   11.15
  -9  -3 -16  202.81   13.82
  -9  -3 -16  171.84   11.71
  -9  -3 -16  174.08   11.24
   9   4  -9    0.93    1.04
   9   4  -9    1.53    1.89
   9   4  -9   -0.95    1.24
   9   4  -8   19.22    5.22
   9   4  -8   19.36    5.28
   9   4  -8   23.81    5.63
   9   4  -7   -0.41    1.96
   9   4  -7   -0.63    4.17
   9   4  -7    6.12    4.05
   9   4  -6   26.98    7.52
   9   4  -6   15.15    4.82
   9   4  -5  440.53   32.31
   9   4  -5  479.67   37.92
   9   4  -5  469.14   39.34
   9   4  -4  661.03   41.69
  -9  -4   4  653.92   35.70
   9   4  -4  547.86   45.70
   9   4  -3  407.16   33.06
  -9  -4   3  382.36   27.51
   9   4  -3  389.50   51.80
   9   4  -2  250.07   26.50
  -9  -4   2  252.52   21.67
  -9  -4   2  208.09   24.46
  -9  -4   2  268.12   38.89
   9   4  -2  236.31   40.40
   9   4  -1  484.71   40.28
  -9  -4   1  511.75   32.41
  -9  -4   1  486.94   39.93
   9   4  -1  520.64   44.33
  -9  -4   1  489.87   56.05
   9   4  -1  436.77   55.72
  -9  -4   0    8.81    3.59
   9   4   0    8.10    7.19
  -9  -4   0    6.48    8.02
  -9  -4   0   12.11    8.57
   9   4   0   12.03    7.40
  -9  -4  -1    6.96    7.81
  -9  -4  -1   -5.45    8.71
   9   4   1   -0.96    8.38
  -9  -4  -2  314.05   51.21
  -9  -4  -2  331.56   38.51
  -9  -4  -3 1542.17  126.71
  -9  -4  -3 1614.82   94.73
  -9  -4  -4  624.79   79.10
   9   4   4  685.41  113.45
  -9  -4  -4  705.47   58.27
  -9  -4  -5  320.82   24.62
  -9  -4  -5  294.30   41.96
  -9  -4  -5  265.88   18.87
  -9  -4  -6   64.09   22.09
  -9  -4  -6   55.44   11.22
  -9  -4  -6   44.33   11.43
  -9  -4  -6   54.15    9.75
  -9  -4  -6   44.21   17.49
  -9  -4  -6   49.76    8.00
  -9  -4  -7  405.79   31.04
  -9  -4  -7  421.98   55.65
  -9  -4  -7  399.93   37.39
  -9  -4  -7  362.58   25.97
  -9  -4  -7  327.76   43.84
  -9  -4  -7  344.87   24.03
  -9  -4  -8   18.38   12.37
  -9  -4  -8    9.62    5.85
  -9  -4  -8   20.39    7.25
  -9  -4  -8    8.79    3.76
  -9  -4  -8   18.57   10.99
  -9  -4  -8   13.86    5.44
  -9  -4  -9   40.77   11.56
  -9  -4  -9   39.61    8.19
  -9  -4  -9   41.41   15.43
  -9  -4  -9   32.49    8.85
  -9  -4 -10  568.88   38.72
  -9  -4 -10  638.09   38.51
  -9  -4 -10  571.98   54.45
  -9  -4 -11 1461.76   69.90
  -9  -4 -11 1315.78   60.89
  -9  -4 -12   59.77   10.76
  -9  -4 -12   54.57    9.78
  -9  -4 -12   51.40   11.77
  -9  -4 -12   76.24   11.19
  -9  -4 -13    0.90    2.29
  -9  -4 -13    1.32    2.11
  -9  -4 -13   -0.63    4.39
  -9  -4 -13   -3.75    2.64
  -9  -4 -13    3.79    4.92
  -9  -4 -14   60.92    8.69
  -9  -4 -14   58.96    8.23
  -9  -4 -14   56.87    9.96
  -9  -4 -14   59.57   10.25
  -9  -4 -14   54.22    8.23
  -9  -4 -15  118.79   10.63
  -9  -4 -15  151.45   14.36
  -9  -4 -15  110.98   11.34
  -9  -4 -15  135.78   11.79
  -9  -4 -15  112.31   10.08
  -9  -4 -16  372.11   20.60
   9   5  -9    4.11    1.75
   9   5  -9    4.32    2.30
   9   5  -9    7.72    2.52
   9   5  -8   12.72    4.43
   9   5  -8   11.79    3.58
   9   5  -8    8.11    2.83
   9   5  -7    6.92    3.24
   9   5  -7   10.48    4.04
   9   5  -7    9.41    5.34
   9   5  -7    6.94    4.20
  -9  -5   6    9.72    4.20
   9   5  -6    4.81    4.02
   9   5  -6   10.86    5.51
   9   5  -6    0.77    5.66
   9   5  -6    0.57    3.22
   9   5  -5  293.36   26.67
  -9  -5   5  311.19   23.91
   9   5  -5  298.48   27.88
   9   5  -4  242.90   24.70
  -9  -5   4  211.32   20.57
   9   5  -4  218.00   25.92
   9   5  -3  220.43   24.28
  -9  -5   3  220.39   21.87
   9   5  -3  161.52   23.89
   9   5  -2  213.07   24.11
  -9  -5   2  221.12   22.15
  -9  -5   2  215.22   23.26
  -9  -5   2  158.22   31.18
   9   5  -2  202.10   36.04
   9   5  -1  132.74   20.99
  -9  -5   1  158.72   18.73
  -9  -5   1  149.86   22.50
  -9  -5   1  149.01   31.25
  -9  -5   0   31.49    7.68
   9   5   0   24.54   10.66
  -9  -5   0   45.25   13.99
  -9  -5   0   50.29   22.61
   9   5   0   41.85   21.50
  -9  -5  -1   13.45    5.14
   9   5   1   19.52    8.26
  -9  -5  -1   16.27   12.07
   9   5   1   11.43   18.19
  -9  -5  -1   17.54    9.97
  -9  -5  -2   42.60   18.81
   9   5   2   77.31   37.95
  -9  -5  -2   47.35   14.61
  -9  -5  -3 1055.62  101.22
  -9  -5  -3 1081.56   73.51
  -9  -5  -4  196.97   43.90
   9   5   4  135.31   52.10
  -9  -5  -4  190.37   29.80
  -9  -5  -4  222.80   36.34
   9   5   5  164.08   56.99
  -9  -5  -5  145.79   13.68
  -9  -5  -6  100.72   14.97
  -9  -5  -6  101.20   27.40
   9   5   6  146.55   45.58
  -9  -5  -6   90.89   18.00
  -9  -5  -6   92.87   13.20
  -9  -5  -6   86.59   11.21
  -9  -5  -7  189.91   20.62
  -9  -5  -7  181.03   37.29
   9   5   7  175.94   45.84
  -9  -5  -7  185.37   25.66
  -9  -5  -7  203.64   19.07
  -9  -5  -7  187.65   35.07
  -9  -5  -7  183.82   16.97
  -9  -5  -8   93.80   14.99
  -9  -5  -8  125.33   28.34
  -9  -5  -8   79.30   16.20
  -9  -5  -8   87.21   12.56
  -9  -5  -8   65.77   18.48
  -9  -5  -8   99.94   13.15
  -9  -5  -9   72.63   12.05
  -9  -5  -9   77.94   20.50
  -9  -5 -10  191.69   20.77
  -9  -5 -10  193.08   31.94
  -9  -5 -10  232.84   22.13
  -9  -5 -11  894.84   52.79
  -9  -5 -11  784.02   44.63
  -9  -5 -11  789.69   47.71
  -9  -5 -12    8.64    5.25
  -9  -5 -12    0.71    3.45
  -9  -5 -12    8.27    4.59
  -9  -5 -12    1.80    3.04
  -9  -5 -12    3.98    2.32
  -9  -5 -13   47.14    8.72
  -9  -5 -13   30.94    7.35
  -9  -5 -13   39.79   10.26
  -9  -5 -13   39.62    7.49
  -9  -5 -14    7.47    2.57
  -9  -5 -14    4.97    1.46
  -9  -5 -14    9.55    4.23
  -9  -5 -14    7.30    3.00
  -9  -5 -15   61.74    8.00
  -9  -5 -15   62.56    8.85
  -9  -5 -15   51.17    7.35
  -9  -5 -15   56.73    6.40
  -9  -5 -16  173.85   11.03
  -9  -5 -16  208.35   13.31
   9   6  -9    3.25    1.06
   9   6  -9    6.79    2.10
   9   6  -8   68.33    8.67
   9   6  -8   65.62    8.15
   9   6  -8   63.42    7.51
   9   6  -7  262.58   20.56
  -9  -6   7  266.47   17.78
   9   6  -7  293.50   23.46
   9   6  -7  283.79   20.69
   9   6  -6   23.27    6.71
  -9  -6   6   10.39    4.03
   9   6  -6   17.03    6.27
   9   6  -6   21.38    8.66
   9   6  -6   20.59    6.22
   9   6  -5  127.32   15.50
  -9  -6   5  131.22   16.45
   9   6  -5  139.11   16.53
  -9  -6   4   25.76    7.74
   9   6  -4   27.06    8.91
   9   6  -4   27.29    8.55
  -9  -6   3    9.78    7.10
   9   6  -3    4.82    5.02
   9   6  -3   10.19    6.35
   9   6  -2  272.18   27.13
  -9  -6   2  345.31   31.55
   9   6  -2  262.80   30.46
  -9  -6   2  279.72   26.41
  -9  -6   2  319.51   45.17
   9   6  -2  233.97   36.55
   9   6  -1  128.25   19.36
  -9  -6   1  132.32   17.55
   9   6  -1   79.72   16.89
  -9  -6   1  120.42   18.98
  -9  -6   1  116.49   27.85
   9   6  -1  116.71   32.08
   9   6   0  394.55   36.70
  -9  -6   0  356.06   27.87
  -9  -6   0  324.89   51.23
  -9  -6   0  367.24   34.88
   9   6   0  405.21   66.31
   9   6   1  345.74   36.67
  -9  -6  -1  254.32   22.19
  -9  -6  -1  253.64   32.06
  -9  -6  -1  220.41   43.54
   9   6   1  307.30   66.30
  -9  -6  -2   -1.90    4.15
  -9  -6  -2   -5.23   11.02
   9   6   2  -10.63    8.35
  -9  -6  -2    8.69    8.34
  -9  -6  -3  234.72   46.92
  -9  -6  -3  236.03   32.80
  -9  -6  -3  316.93   47.04
   9   6   4   -6.43   11.31
  -9  -6  -4    6.61   11.12
  -9  -6  -4    5.66    5.47
   9   6   5  178.08   52.00
  -9  -6  -5  145.37   32.53
  -9  -6  -6  421.73   62.72
   9   6   6  444.30   84.68
  -9  -6  -6  435.74   41.81
  -9  -6  -6  413.76   29.46
  -9  -6  -6  446.87   53.82
  -9  -6  -6  391.29   25.20
  -9  -6  -7   24.42   14.41
   9   6   7   50.09   26.73
  -9  -6  -7   23.26    7.60
  -9  -6  -7   21.25    6.69
  -9  -6  -8  784.25   75.68
  -9  -6  -8  788.27   49.24
   9   6   8  606.66   82.90
  -9  -6  -8  702.77   40.81
  -9  -6  -8  741.00   40.00
  -9  -6  -9  104.44   16.07
  -9  -6  -9  104.27   24.31
   9   6   9   61.90   22.67
  -9  -6  -9   86.17   13.60
  -9  -6  -9   81.89   13.03
  -9  -6 -10   12.64    5.32
  -9  -6 -10    3.74    3.72
  -9  -6 -10    6.61    7.95
  -9  -6 -10   14.34    6.23
  -9  -6 -11   61.30   10.97
  -9  -6 -11   86.14   14.76
  -9  -6 -11   61.39   11.54
  -9  -6 -11   73.85   10.73
  -9  -6 -12   35.78    9.10
  -9  -6 -12   52.81   10.57
  -9  -6 -12   46.11    7.62
  -9  -6 -13  387.12   28.39
  -9  -6 -13  382.76   27.53
  -9  -6 -13  350.33   20.79
  -9  -6 -14  278.77   21.57
  -9  -6 -14  267.85   19.44
  -9  -6 -15   41.37    6.91
  -9  -6 -15   24.58    4.25
  -9  -6 -16  102.43    8.93
  -9  -6 -16  109.98    9.20
   9   7  -8  185.56   14.38
  -9  -7   8  183.90   11.83
   9   7  -8  196.94   13.68
   9   7  -8  183.57   11.86
   9   7  -7  465.54   27.55
  -9  -7   7  451.83   24.69
   9   7  -7  504.46   29.52
   9   7  -7  443.74   23.71
   9   7  -6   17.09    4.83
  -9  -7   6   21.18    6.28
   9   7  -6   18.89    5.54
   9   7  -6   17.65    5.07
  -9  -7   5   47.41   10.69
   9   7  -5   43.44    9.31
   9   7  -5   45.85    9.39
   9   7  -4  134.32   17.03
  -9  -7   4  143.45   20.41
   9   7  -4  175.59   19.45
  -9  -7   3   99.60   18.67
   9   7  -3   64.89   11.78
   9   7  -3   90.37   15.24
   9   7  -2  259.65   26.21
  -9  -7   2  316.92   30.03
  -9  -7   2  222.84   38.87
   9   7  -2  293.50   29.17
  -9  -7   2  240.20   25.30
   9   7  -2  189.11   36.78
   9   7  -1  220.44   24.86
  -9  -7   1  263.52   26.14
   9   7  -1  240.61   27.68
  -9  -7   1  262.90   28.54
   9   7  -1  193.47   39.92
  -9  -7   1  231.35   43.61
   9   7   0 1184.99   67.08
  -9  -7   0 1170.15   56.44
  -9  -7   0  925.44   65.27
  -9  -7   0 1162.21   68.98
  -9  -7   0 1196.55  106.53
   9   7   0 1225.73  118.08
   9   7   1  569.76   46.09
  -9  -7  -1  438.34   30.67
  -9  -7  -1  376.29   37.01
  -9  -7  -1  590.73   70.84
  -9  -7  -1  506.34   43.84
  -9  -7  -1  462.19   65.14
   9   7   1  521.35   89.46
  -9  -7  -2   22.40    6.37
   9   7   2   37.85   15.39
  -9  -7  -2   20.34    6.88
  -9  -7  -2   38.07   16.14
  -9  -7  -2    2.88    9.80
  -9  -7  -2   13.69    6.32
   9   7   2   18.74   24.80
  -9  -7  -3   21.26    5.80
  -9  -7  -3   24.09   17.40
  -9  -7  -3   28.70   13.55
  -9  -7  -3   10.33   12.44
  -9  -7  -4  298.20   36.57
  -9  -7  -4  271.00   54.54
   9   7   4  246.22   90.73
  -9  -7  -4  322.00   47.52
   9   7   5  110.91   52.68
  -9  -7  -5   70.20   20.77
  -9  -7  -6  968.21   96.35
  -9  -7  -6  916.76   61.18
  -9  -7  -6  830.70   46.04
  -9  -7  -6  855.22   79.47
  -9  -7  -6  857.28   41.60
  -9  -7  -7  377.86   36.06
  -9  -7  -7  345.58   54.83
   9   7   7  365.88   72.39
  -9  -7  -7  302.68   25.73
  -9  -7  -7  312.68   23.48
  -9  -7  -8 1097.94   61.65
  -9  -7  -8 1078.48   94.14
   9   7   8  997.35  103.96
  -9  -7  -8  913.17   49.20
  -9  -7  -8  969.67   47.84
   9   7   9    4.77    5.93
  -9  -7  -9    4.55    4.87
  -9  -7  -9    4.02    9.06
  -9  -7  -9    5.66    3.99
  -9  -7  -9    8.58    3.05
  -9  -7 -10  151.73   31.29
  -9  -7 -10  124.65   17.25
  -9  -7 -10   99.19   15.87
  -9  -7 -10  115.93   16.24
  -9  -7 -11    2.71    2.91
  -9  -7 -11    6.89    4.19
  -9  -7 -11   -0.60    2.51
  -9  -7 -12   47.56   10.60
  -9  -7 -12   51.88   10.86
  -9  -7 -12   64.52   11.28
  -9  -7 -12   62.59    7.71
  -9  -7 -13  395.52   28.88
  -9  -7 -13  370.34   27.91
  -9  -7 -14  672.40   31.63
  -9  -7 -14  643.73   30.38
  -9  -7 -14  620.80   25.96
  -9  -7 -15  117.80   11.77
  -9  -7 -15  126.45   11.74
  -9  -7 -16   76.57    7.42
  -9  -7 -16   76.81    7.27
  -9  -7 -16   82.39    8.02
  -9  -8   8   81.41    7.09
   9   8  -8    0.51    0.92
   9   8  -7  157.26   14.56
  -9  -8   7  139.14   12.43
   9   8  -7  183.37   15.25
   9   8  -6    1.02    2.86
  -9  -8   6    1.79    1.77
   9   8  -6   -1.75    3.41
  -9  -8   5   38.15    9.52
   9   8  -5   44.43    8.33
   9   8  -5   38.73    7.13
  -9  -8   4   29.28   11.64
   9   8  -4   20.13    6.53
   9   8  -4   13.88    4.69
  -9  -8   3   22.46    8.45
   9   8  -3   18.56    7.26
   9   8  -2  243.78   25.42
  -9  -8   2  319.26   30.92
  -9  -8   2  272.42   39.37
  -9  -8   2  262.05   28.78
  -9  -8   2  307.54   50.94
   9   8  -2  241.32   40.27
  -9  -8   1   46.37   10.50
   9   8  -1   31.35   10.58
  -9  -8   1   43.03   14.54
  -9  -8   1   79.03   27.89
  -9  -8   1   49.32   20.50
   9   8  -1   22.98   12.29
  -9  -8   1   46.30   12.79
   9   8   0  673.80   48.11
  -9  -8   0  687.58   41.64
  -9  -8   0  586.29   53.89
  -9  -8   0  604.59   73.81
  -9  -8   0  690.39   53.75
  -9  -8   0  710.51   85.78
   9   8   0  752.80   93.75
   9   8   1  262.11   30.79
  -9  -8  -1  210.84   20.96
  -9  -8  -1  189.32   28.63
  -9  -8  -1  269.69   47.11
  -9  -8  -1  273.27   33.53
  -9  -8  -1  226.20   49.13
  -9  -8  -2   -4.15    5.41
   9   8   2   -2.41    5.18
  -9  -8  -2   -4.44    5.68
  -9  -8  -2   -6.88    9.56
  -9  -8  -2    3.79    8.32
   9   8   2  -30.42   38.84
  -9  -8  -2   26.32   19.82
   9   8   3    4.56   10.20
  -9  -8  -3    1.33    5.25
  -9  -8  -3   10.35    7.27
  -9  -8  -3    8.69    7.20
  -9  -8  -4  192.25   30.04
   9   8   4  220.66   83.81
  -9  -8  -4  197.88   51.10
  -9  -8  -4  200.39   21.65
  -9  -8  -4  164.57   34.80
   9   8   5   95.39   53.02
  -9  -8  -5   50.68   20.80
  -9  -8  -6  702.16   55.11
  -9  -8  -6  700.09   86.93
  -9  -8  -6  615.77   34.56
  -9  -8  -7   91.13   30.83
   9   8   7  134.58   50.20
  -9  -8  -7  109.89   19.23
  -9  -8  -7   90.25   12.21
  -9  -8  -8  678.59   48.15
  -9  -8  -8  620.58   73.94
   9   8   8  679.77   86.01
  -9  -8  -8  585.37   38.29
  -9  -8  -8  577.88   34.68
  -9  -8  -9   13.78   11.02
   9   8   9   -4.85    9.75
  -9  -8  -9    4.19    5.19
  -9  -8  -9    0.67    4.72
  -9  -8  -9   -2.20    4.67
  -9  -8  -9    0.59    1.99
  -9  -8 -10    2.13    5.70
  -9  -8 -10   20.57    8.04
  -9  -8 -10    7.96    5.47
  -9  -8 -10   15.08    5.26
  -9  -8 -10    9.66    3.77
  -9  -8 -11   51.62   10.85
  -9  -8 -11   50.15   12.80
  -9  -8 -11   63.89   10.64
  -9  -8 -12    8.38    4.83
  -9  -8 -12   19.05    7.39
  -9  -8 -12   12.14    4.34
  -9  -8 -13  144.40   16.28
  -9  -8 -13  164.22   16.86
  -9  -8 -13  163.66   14.02
  -9  -8 -14  199.72   17.05
  -9  -8 -14  188.52   15.83
  -9  -8 -15    5.92    2.42
  -9  -8 -15    5.70    2.30
  -9  -8 -16  110.63    7.93
  -9  -8 -16  108.65    7.94
  -9  -8 -16  117.04    9.09
   9   9  -7   -0.42    0.88
  -9  -9   7   11.22    3.67
   9   9  -7    8.62    3.56
   9   9  -6    0.80    2.19
  -9  -9   6    4.02    2.62
   9   9  -6    2.35    1.97
   9   9  -5  194.96   18.18
  -9  -9   5  224.03   21.74
   9   9  -5  188.81   19.14
   9   9  -4   90.52   12.85
  -9  -9   4  122.09   19.45
   9   9  -3  107.11   15.36
  -9  -9   3  145.66   21.92
   9   9  -2  297.74   27.05
  -9  -9   2  378.59   33.94
  -9  -9   2  325.36   44.25
  -9  -9   2  332.14   32.45
   9   9  -2  313.47   45.59
  -9  -9   1   23.84    8.24
   9   9  -1   24.91    9.51
  -9  -9   1   42.52   14.63
   9   9  -1   43.25   20.32
  -9  -9   1   37.53   23.84
  -9  -9   1   16.74    7.91
  -9  -9   0   52.00   11.93
   9   9   0   38.60    9.46
  -9  -9   0   50.72   15.63
  -9  -9   0   44.16   19.76
   9   9   0   72.36   33.54
  -9  -9   0   53.12   17.70
   9   9   1   55.71   13.65
  -9  -9  -1   51.74   15.85
  -9  -9  -1   51.55   24.54
  -9  -9  -1   79.42   31.88
   9   9   1   38.45   21.24
  -9  -9  -1   51.75   15.33
   9   9   2  137.56   23.34
  -9  -9  -2   81.35   18.94
  -9  -9  -2   84.15   25.64
  -9  -9  -2   92.68   38.79
  -9  -9  -2   95.93   22.30
  -9  -9  -3  622.63   36.53
  -9  -9  -3  605.67   41.90
  -9  -9  -3  636.28   73.46
  -9  -9  -3  665.18   61.22
  -9  -9  -3  624.03   94.76
  -9  -9  -4   97.81   38.87
   9   9   4   33.93   45.03
  -9  -9  -4  115.85   24.61
  -9  -9  -4   78.79   13.61
   9   9   5  331.24  120.30
  -9  -9  -5  169.10   19.60
  -9  -9  -6  209.92   50.43
  -9  -9  -6  192.41   29.96
  -9  -9  -6  175.24   20.43
  -9  -9  -6  154.20   15.98
  -9  -9  -7   98.96   34.91
  -9  -9  -7   71.48   17.94
  -9  -9  -7   64.15   10.40
  -9  -9  -8  264.32   30.78
  -9  -9  -8  303.99   55.02
   9   9   8  332.18   61.27
  -9  -9  -8  292.08   24.39
  -9  -9  -8  234.53   20.97
  -9  -9  -9   68.07   14.85
   9   9   9   73.35   25.01
  -9  -9  -9   68.00   24.87
  -9  -9  -9   54.84    9.99
  -9  -9  -9   57.50   10.87
  -9  -9  -9   50.32    9.15
  -9  -9 -10  149.85   19.85
  -9  -9 -10  140.09   19.61
  -9  -9 -10  145.12   15.20
  -9  -9 -10  117.20   13.01
  -9  -9 -11  557.55   35.41
  -9  -9 -11  554.58   39.67
  -9  -9 -11  595.68   30.72
  -9  -9 -11  530.91   28.87
  -9  -9 -12    5.87    3.80
  -9  -9 -12    1.26    3.20
  -9  -9 -12    3.04    3.12
  -9  -9 -13   36.44    7.38
  -9  -9 -13   43.02    7.48
  -9  -9 -14    3.99    2.89
  -9  -9 -14    2.82    2.91
  -9  -9 -15    9.58    2.98
  -9  -9 -15    8.69    2.49
  -9  -9 -15    7.34    2.12
  -9 -10   7    7.34    2.63
  -9 -10   6   26.82    5.94
   9  10  -6   31.47    6.03
   9  10  -5  242.44   19.37
  -9 -10   5  228.89   20.90
   9  10  -5  253.46   18.91
   9  10  -4  211.01   19.45
  -9 -10   4  219.31   22.58
   9  10  -3  236.23   21.89
  -9 -10   3  255.70   25.29
   9  10  -2  177.74   20.35
  -9 -10   2  208.07   23.29
   9  10  -1  136.24   18.10
  -9 -10   1  101.34   23.85
  -9 -10   1  146.78   24.55
  -9 -10   1  154.70   42.50
   9  10  -1  150.86   34.43
   9  10   0    9.91    5.21
  -9 -10   0   14.46    8.55
  -9 -10   0   36.85   16.78
  -9 -10   0   -3.86   14.52
   9  10   0   10.48   10.69
  -9 -10  -1   13.19    6.06
   9  10   1   14.60    5.74
  -9 -10  -1   20.99    7.97
  -9 -10  -1   19.52   11.94
  -9 -10  -1   22.30   12.70
   9  10   1   17.06   22.12
  -9 -10  -1  -12.44   21.62
  -9 -10  -2   28.93    7.94
   9  10   2   39.34   11.55
  -9 -10  -2   38.26   10.45
  -9 -10  -2   35.91   25.98
   9  10   2   66.82   50.67
  -9 -10  -2   35.59   18.51
  -9 -10  -3 1280.92   57.40
  -9 -10  -3 1297.40   64.64
  -9 -10  -3 1270.54   92.50
  -9 -10  -3 1408.03  152.75
  -9 -10  -4  370.05   46.15
  -9 -10  -4  391.17   77.34
   9  10   4  435.98  178.72
  -9 -10  -4  315.41   27.88
  -9 -10  -5  326.12   73.23
  -9 -10  -5  184.37   21.58
  -9 -10  -6   -4.11   22.45
   9  10   6    9.49   29.40
  -9 -10  -6   -4.44    5.57
  -9 -10  -6   -4.06    2.91
  -9 -10  -6    4.46    5.40
  -9 -10  -7  385.85   42.57
  -9 -10  -7  330.30   28.91
  -9 -10  -7  317.51   23.65
  -9 -10  -8   13.81   10.17
  -9 -10  -8   45.67   23.34
   9  10   8   31.08   18.29
  -9 -10  -8   11.02    3.99
  -9 -10  -8   15.91    5.08
  -9 -10  -9   80.10   15.99
  -9 -10  -9   65.18    9.86
  -9 -10 -10  336.24   25.97
  -9 -10 -10  290.69   20.84
  -9 -10 -11  746.71   39.61
  -9 -10 -11  772.04   35.18
  -9 -10 -12    1.19    1.73
  -9 -10 -12    0.58    3.28
  -9 -10 -13    4.66    2.55
  -9 -10 -13   -1.80    1.39
  -9 -10 -14    2.04    1.34
  -9 -10 -14    0.44    1.15
  -9 -11   6    8.24    2.98
   9  11  -5  242.87   17.81
  -9 -11   5  228.35   18.76
   9  11  -4  118.79   12.86
  -9 -11   4  108.22   13.35
   9  11  -3  124.07   14.85
  -9 -11   3  136.90   16.85
   9  11  -2  128.06   15.42
  -9 -11   2  128.78   17.70
  -9 -11   1   44.41    8.65
   9  11  -1   43.09   10.07
  -9 -11   1   55.85   11.80
  -9 -11   0   24.27    7.31
   9  11   0   14.93    5.24
  -9 -11   0   27.84    7.43
  -9 -11  -1   17.89    6.03
   9  11   1    2.28    4.46
  -9 -11  -1    4.51    4.41
  -9 -11  -1    8.11   17.13
  -9 -11  -1   -4.65   12.75
   9  11   1    4.89   16.64
  -9 -11  -2   45.23    8.41
   9  11   2   49.01   12.17
  -9 -11  -2   51.21   11.91
  -9 -11  -2   64.22   23.71
  -9 -11  -2   71.12   33.26
   9  11   2   34.08   37.47
   9  11   3  916.17   59.28
  -9 -11  -3  732.59   70.66
  -9 -11  -3  685.50  111.43
  -9 -11  -3  695.63   44.26
  -9 -11  -4  161.23   32.37
  -9 -11  -4  168.69   56.50
   9  11   4  150.89  148.57
  -9 -11  -4  139.47   18.23
  -9 -11  -5  164.77   55.60
  -9 -11  -5  203.58   22.74
  -9 -11  -6   -1.63    9.61
  -9 -11  -6   -4.65   19.38
  -9 -11  -6   20.04    6.69
  -9 -11  -7   78.61   13.88
  -9 -11  -8   91.00   15.54
  -9 -11  -8   73.93   10.94
  -9 -11  -9  103.47   16.45
  -9 -11  -9   81.67   10.92
  -9 -11 -10  138.96   15.03
  -9 -11 -10  155.56   20.29
  -9 -11 -10  164.17   14.63
  -9 -11 -11  419.43   25.20
  -9 -11 -11  483.64   25.03
  -9 -11 -12    2.54    1.57
  -9 -11 -12    1.58    1.08
  -9 -11 -13   42.34    6.75
  -9 -11 -14   -0.39    1.18
   9  12  -5   36.73    5.49
   9  12  -4    2.35    1.92
  -9 -12   3   -0.45    2.98
   9  12  -3    1.62    1.67
   9  12  -2   92.78   12.10
  -9 -12   2   81.43   11.81
  -9 -12   1    5.06    2.15
   9  12  -1    1.05    3.00
  -9 -12   1   -1.74    3.82
   9  12   0  249.04   22.81
  -9 -12   0  279.73   22.29
  -9 -12   0  252.27   24.09
   9  12   1   86.33   14.52
  -9 -12  -1   90.26   11.99
  -9 -12  -1   72.49   12.18
   9  12   2    8.21    2.73
  -9 -12  -2    4.72    4.62
   9  12   3   59.92   13.05
  -9 -12  -3   59.16   11.23
  -9 -12  -4   10.74    5.24
  -9 -12  -4   11.65    4.64
  -9 -12  -5   56.32   12.24
  -9 -12  -5   53.34    9.29
  -9 -12  -6  243.00   24.48
  -9 -12  -6  253.49   19.63
  -9 -12  -7   14.26    6.84
  -9 -12  -7   14.82    3.94
  -9 -12  -7   21.41    6.32
  -9 -12  -8  285.52   28.14
  -9 -12  -8  267.44   20.74
  -9 -12  -8  260.36   20.65
  -9 -12  -9    2.84    1.95
  -9 -12  -9    4.77    6.88
  -9 -12  -9   -0.37    2.61
  -9 -12 -10   -0.85    1.57
  -9 -12 -10    4.21    3.23
  -9 -12 -11   27.67    4.93
  -9 -12 -12   -1.66    2.30
  -9 -13   3   16.33    4.75
   9  13  -3   16.37    4.00
   9  13  -2   78.23    9.97
  -9 -13   2   85.32   10.48
  -9 -13   1   56.52    8.55
   9  13  -1   46.71    7.66
   9  13   0  471.78   30.28
  -9 -13   0  588.14   30.79
   9  13   1  188.88   18.95
   9  13   2    4.30    2.93
  -9 -13  -2   -0.61    3.54
   9  13   3   -2.15    3.13
  -9 -13  -3    1.92    4.13
  -9 -13  -3   -1.12    2.48
   9  13   4  158.85   21.91
  -9 -13  -4  121.23   16.29
  -9 -13  -4  124.11   12.66
  -9 -13  -5   27.40    8.95
  -9 -13  -5   28.47    5.84
  -9 -13  -6  408.71   32.01
  -9 -13  -6  402.46   24.35
  -9 -13  -7  166.03   19.56
  -9 -13  -7  168.79   15.82
  -9 -13  -7  168.26   14.90
  -9 -13  -8  381.65   30.01
  -9 -13  -8  472.86   26.31
  -9 -13  -8  424.02   24.35
  -9 -13  -9   -1.08    2.38
  -9 -13  -9    0.31    1.92
  -9 -13 -10   50.98    6.81
  -9 -13 -11    2.42    1.77
  -9 -13 -11    0.38    1.24
   9  14  -2   56.03    7.16
   9  14  -1   31.40    5.88
   9  14   0  240.21   17.95
   9  14   1   98.54   11.81
  -9 -14  -1  106.60   10.94
   9  14   2   -1.92    4.11
  -9 -14  -2    3.10    1.89
   9  14   3   55.56    9.80
  -9 -14  -3   55.78    7.88
   9  14   4   39.45    9.53
  -9 -14  -4   24.82    6.43
  -9 -14  -4   36.07    5.80
   9  14   5   51.51   10.74
  -9 -14  -5   39.91    8.36
  -9 -14  -5   48.94    7.23
  -9 -14  -6  194.63   20.38
  -9 -14  -6  218.81   15.75
   9  14   7   80.60   13.99
  -9 -14  -7   54.31   10.33
  -9 -14  -8  246.28   15.79
  -9 -14  -9    2.53    1.06
   9  15   2    1.04    1.47
  -9 -15  -2    5.32    2.43
   9  15   3  263.91   19.50
  -9 -15  -3  225.03   14.23
   9  15   4   32.46    7.24
  -9 -15  -4   17.93    4.20
   9  15   5   73.61    9.74
   9  15   6   15.31    4.64
 -10   6  -3   60.77   10.12
  10  -6   3   59.11   10.64
 -10   6  -4    7.87    3.76
  10  -6   4    3.67    2.15
  10  -6   4    1.96    1.53
  10  -6   5  300.49   65.03
  10  -6   5    2.72    1.47
  10  -5  -1    2.32    2.68
  10  -5   0  367.25   36.21
 -10   5   0  369.78   24.07
  10  -5   0  332.09   24.33
 -10   5  -1    1.62    3.63
  10  -5   1    6.01    5.09
  10  -5   2  -20.82   31.34
 -10   5  -2    0.67    2.48
 -10   5  -3    5.44    4.93
  10  -5   3    0.45    0.75
 -10   5  -4  128.38   18.46
  10  -5   4    8.87    3.27
  10  -5   5   93.98   41.42
 -10   5  -6   20.11    5.63
  10  -5   6   13.09   21.01
 -10   5  -7  105.43   13.43
  10  -5   7  135.90   32.53
  10  -5   8  325.88   37.59
 -10   5  -8  302.05   20.10
  10  -5   9   -4.01    3.64
  10  -4  -3   25.44    5.98
  10  -4  -2   -1.86    2.21
  10  -4  -2    3.45    5.05
 -10   4   1    3.65    3.84
  10  -4  -1   -1.59    2.96
  10  -4   0  353.65   47.74
 -10   4   0  416.70   28.80
  10  -4   0  380.46   28.75
 -10   4  -1   14.67    5.32
  10  -4   1   22.42   25.48
 -10   4  -2    8.14    5.03
  10  -4   2   86.88   54.33
 -10   4  -3   -6.71    7.94
 -10   4  -4  217.69   30.81
  10  -4   4  927.47  232.37
  10  -4   5  -64.24   72.31
 -10   4  -6   55.80   13.23
  10  -4   6  108.68   54.45
 -10   4  -7  128.66   17.92
  10  -4   7  158.00   43.31
  10  -4   8  331.18   48.53
 -10   4  -8  376.84   27.06
  10  -4   9   18.10   12.55
 -10   4  -9   21.13    5.67
  10  -4  10    5.58    3.82
 -10   4 -11   40.12    4.82
  10  -3  -4   12.71    5.16
  10  -3  -4   24.18    4.92
  10  -3  -3   20.05    6.20
  10  -3  -3   16.25    7.41
  10  -3  -2    3.74    3.03
  10  -3  -2   11.99    5.75
  10  -3  -1   30.29   14.94
 -10   3   1   42.95    9.44
  10  -3  -1   49.65   10.58
  10  -3   0  111.50   33.48
 -10   3   0  128.65   16.83
  10  -3   0  128.88   17.04
  10  -3   1   -4.11   24.82
 -10   3  -1    1.63    4.11
  10  -3   2   13.77   29.02
 -10   3  -2   22.19    9.83
 -10   3  -3    4.12    8.14
  10  -3   4  316.24  136.11
 -10   3  -4   86.55   21.82
  10  -3   5  253.35  104.33
  10  -3   6   35.98   32.75
 -10   3  -6   23.27   10.80
  10  -3   7   -4.45   19.88
 -10   3  -7    7.07    4.52
  10  -3   8   99.93   36.25
 -10   3  -8  122.17   16.75
 -10   3  -9   22.69    4.62
  10  -3   9   23.27   15.26
 -10   3  -9   31.44    7.21
 -10   3 -10   14.29    3.75
  10  -3  10   10.89    9.58
 -10   3 -10   19.60    4.73
 -10   3 -11   48.23    7.24
 -10   3 -12    1.01    1.17
 -10   3 -12    3.28    1.90
  10  -2  -5   85.05   10.86
  10  -2  -5    2.10    1.36
  10  -2  -4    7.85    3.51
  10  -2  -4   11.43    4.08
  10  -2  -3  245.70   24.39
  10  -2  -3  256.72   25.35
  10  -2  -2    7.01    5.51
 -10   2   2    8.40    4.36
  10  -2  -2    8.40    4.45
  10  -2  -1  109.99   31.59
 -10   2   1  165.58   18.31
  10  -2  -1  149.24   19.16
  10  -2   0    8.50   11.82
 -10   2   0    2.88    3.56
  10  -2   0    5.76    2.90
  10  -2   1  122.51   44.30
 -10   2  -1  133.74   20.30
  10  -2   2   -9.61   21.56
 -10   2  -2   38.76   10.15
 -10   2  -3  350.61   43.33
  10  -2   4   70.92   39.14
 -10   2  -4   53.79   18.55
  10  -2   5  366.68   91.50
  10  -2   6   45.49   38.73
 -10   2  -6   25.90   11.24
 -10   2  -7   69.57    9.47
 -10   2  -7   82.53   17.91
 -10   2  -8    0.46    2.55
  10  -2   8   -3.13   11.68
 -10   2  -8   -4.77    6.82
 -10   2  -9   17.95    5.19
  10  -2   9    7.63   12.63
 -10   2  -9   24.64    7.11
 -10   2 -10  230.36   21.08
  10  -2  10  169.34   30.06
 -10   2 -10  227.87   19.46
 -10   2 -11  491.15   31.10
 -10   2 -12   53.95    7.88
 -10   2 -12   47.63    6.04
 -10   2 -13   81.93    8.37
 -10   2 -13   72.96    8.06
  10  -1  -6   97.46   11.43
  10  -1  -6   73.57    6.77
  10  -1  -5   17.58    6.52
  10  -1  -5   31.00    5.20
  10  -1  -4   -1.21    2.75
  10  -1  -4   -1.33    2.90
  10  -1  -4    3.74    2.14
  10  -1  -3  233.21   17.97
  10  -1  -3  199.86   23.06
  10  -1  -2   40.71    8.04
 -10   1   2   35.63    8.02
  10  -1  -2   28.84    7.53
  10  -1  -2   18.09   14.02
 -10   1   1  142.09   17.63
  10  -1  -1  156.80   20.73
  10  -1  -1  139.32   31.53
 -10   1   0   32.24    9.51
  10  -1   0   42.48   10.03
  10  -1   0   63.21   21.46
  10  -1   1  513.23   68.44
 -10   1  -1  423.14   39.00
  10  -1   2   34.91   24.32
 -10   1  -2   17.78   10.91
 -10   1  -3  428.18   48.70
  10  -1   4  127.97   42.95
 -10   1  -4   96.70   23.51
  10  -1   5  377.35   78.11
 -10   1  -6  100.70   11.25
  10  -1   6  141.39   43.91
 -10   1  -6  146.24   26.86
 -10   1  -7  345.60   24.36
  10  -1   7  295.09   56.09
 -10   1  -7  417.38   40.57
 -10   1  -8    2.17    1.82
 -10   1  -8   -1.78    4.27
 -10   1  -9    5.84    3.61
  10  -1   9   10.83   12.23
 -10   1  -9   -2.07    2.47
 -10   1 -10  291.99   28.01
 -10   1 -10  285.79   23.51
 -10   1 -11  308.63   25.77
 -10   1 -12    7.31    3.98
 -10   1 -12    5.50    4.40
 -10   1 -13   36.28    6.17
 -10   1 -13   38.46    5.98
 -10   1 -13   42.88    7.19
 -10   1 -14  113.33    9.45
 -10   1 -14  105.72    7.49
  10   0  -6    5.14    4.26
  10   0  -6    2.83    2.45
  10   0  -6    3.00    1.21
  10   0  -6    6.01    2.23
  10   0  -5    7.02    3.72
  10   0  -5    9.94    2.88
  10   0  -5   13.68    4.42
  10   0  -4   80.09   11.53
  10   0  -4   94.15   10.86
  10   0  -3   19.94    5.86
  10   0  -3   15.25    6.18
  10   0  -3   23.40    8.28
 -10   0   2   60.24   11.39
  10   0  -2   57.52   12.18
  10   0  -2   34.40   15.20
  10   0  -1   21.99    7.56
 -10   0   1   13.93    6.74
  10   0  -1    7.46    5.18
  10   0  -1    3.21    6.72
  10   0   0   72.57   15.58
  10   0   0   71.42   20.10
 -10   0   0   74.70   22.85
 -10   0   0   51.20   11.60
  10   0   0   67.35   13.89
  10   0   1  216.36   40.13
 -10   0  -1  244.94   29.51
  10   0   2   38.39   26.11
  10   0   2   30.51   22.28
 -10   0  -2    5.49    8.50
  10   0   3  187.45   69.45
 -10   0  -3  103.93   23.35
  10   0   4   14.39   24.15
  10   0   4    7.22   25.83
 -10   0  -4    4.51    7.52
 -10   0  -5  166.60   14.80
  10   0   5  211.35   55.25
 -10   0  -5  185.62   30.51
 -10   0  -6    9.12    3.29
  10   0   6   -8.79   15.05
  10   0   6   -7.54   29.79
 -10   0  -6    3.98    9.95
 -10   0  -6   16.76   11.23
 -10   0  -7   46.51    8.85
  10   0   7   76.42   25.62
  10   0   7   72.91   40.56
 -10   0  -7   69.35   17.52
 -10   0  -8  194.66   20.23
 -10   0  -8  223.25   41.07
  10   0   8  164.86   32.07
  10   0   8  174.00   51.38
 -10   0  -8  212.33   26.37
 -10   0  -9   -2.89    4.16
  10   0   9    1.82   15.47
 -10   0  -9    3.39    7.17
 -10   0  -9    8.24    7.46
 -10   0 -10  252.39   25.44
  10   0  10  203.99   32.51
 -10   0 -10  203.63   20.43
 -10   0 -11   20.04    6.60
 -10   0 -11   18.84    5.16
 -10   0 -12    3.03    1.75
 -10   0 -13   87.75   10.75
 -10   0 -13   83.47    7.84
 -10   0 -13   88.79   10.88
 -10   0 -13   97.81   11.05
 -10   0 -14   -1.30    1.29
 -10   0 -14    0.74    1.29
 -10   0 -14    0.28    1.53
 -10   0 -15   32.09    3.80
 -10   0 -15   41.97    5.32
  10   1  -7   19.84    3.79
  10   1  -7   25.11    4.39
  10   1  -7   23.35    5.19
  10   1  -7   29.22    5.75
  10   1  -6   16.39    4.41
  10   1  -6   14.59    3.97
  10   1  -6    9.97    5.63
  10   1  -5   26.36    6.47
  10   1  -5   28.16    6.75
  10   1  -4  321.72   25.16
  10   1  -4  366.72   26.89
  10   1  -3  100.04   14.16
  10   1  -3   84.41   13.07
  10   1  -3   60.89   12.31
  10   1  -2   40.93   10.83
  10   1  -2   34.33    8.43
 -10  -1   2   37.55    9.61
  10   1  -2   28.66   10.72
  10   1  -2   29.76   13.50
  10   1  -1   13.83    6.62
 -10  -1   1    6.58    3.64
  10   1  -1   20.73   10.05
 -10  -1   1   17.39    9.80
  10   1  -1   16.12    9.86
  10   1   0  774.78   51.69
  10   1   0  751.17   65.17
 -10  -1   0  720.26   49.12
  10   1   0  619.09   45.87
 -10  -1   0  661.27   66.88
  10   1   0  695.98   91.37
 -10  -1  -1    8.85    7.73
  10   1   1   11.57    6.50
  10   1   1   -3.74    9.68
  10   1   1   25.00   18.92
 -10  -1  -1   11.89   13.42
 -10  -1  -2    3.94    7.39
  10   1   2    6.95    8.50
 -10  -1  -2    5.78   10.34
 -10  -1  -3   32.24   12.78
  10   1   3   65.21   29.96
  10   1   4  810.54   91.35
 -10  -1  -4  590.39   55.66
  10   1   4  922.72  131.55
 -10  -1  -5   70.18    9.77
  10   1   5   88.27   27.68
  10   1   5   76.01   39.22
 -10  -1  -6   43.25   15.04
 -10  -1  -6   20.01   10.75
 -10  -1  -6   21.03    5.99
  10   1   6   46.92   24.04
  10   1   6   25.41   37.28
 -10  -1  -6   14.65   14.90
 -10  -1  -7  278.30   33.42
 -10  -1  -7  244.95   35.99
 -10  -1  -7  259.39   22.39
  10   1   7  237.07   40.30
  10   1   7  364.98   83.98
 -10  -1  -7  236.96   44.94
 -10  -1  -8  451.62   32.79
  10   1   8  655.33   63.64
 -10  -1  -8  628.14   46.66
 -10  -1  -8  573.18   54.97
 -10  -1  -8  572.43   37.66
 -10  -1  -8  607.52   67.26
  10   1   8  764.47  107.03
 -10  -1  -9   32.28    7.51
 -10  -1  -9   50.67   12.53
 -10  -1  -9   42.74   10.35
  10   1   9   51.29   16.41
 -10  -1  -9   43.32   16.43
 -10  -1 -10    3.98    3.53
 -10  -1 -10    0.62    3.41
 -10  -1 -10   -1.38    3.47
 -10  -1 -10    2.81    2.44
  10   1  10    6.63    4.45
 -10  -1 -11   81.03   10.74
 -10  -1 -11   86.86   12.11
 -10  -1 -11   87.01   13.42
 -10  -1 -12   33.71    7.22
 -10  -1 -12   35.91    6.53
 -10  -1 -13  198.64   17.42
 -10  -1 -13  201.75   15.01
 -10  -1 -13  202.07   17.80
 -10  -1 -14   94.85    8.74
 -10  -1 -14  121.52   12.06
 -10  -1 -15  167.75   11.60
 -10  -1 -15  151.30    9.62
 -10  -1 -15  178.97   11.72
  10   2  -7   17.25    4.01
  10   2  -7   17.10    4.28
  10   2  -6    5.00    2.74
  10   2  -6    7.43    3.81
  10   2  -6    3.95    2.95
  10   2  -5   60.06   10.29
  10   2  -5   51.36    8.61
  10   2  -5   49.20   12.32
  10   2  -4  296.62   23.83
  10   2  -4  335.55   28.65
  10   2  -3   42.20   10.98
  10   2  -3   37.04    8.13
  10   2  -3   33.26    9.53
  10   2  -3   29.88    7.69
  10   2  -2   97.07   15.51
  10   2  -2  143.15   20.55
 -10  -2   2  151.85   18.28
  10   2  -2  132.10   20.16
  10   2  -2  136.29   23.26
  10   2  -1    8.01    2.96
 -10  -2   1   12.14    3.69
  10   2  -1   32.20   10.35
 -10  -2   1   22.84   10.98
  10   2  -1    8.19    4.54
  10   2  -1   11.53   13.42
  10   2   0  743.42   61.77
 -10  -2   0  773.62   52.47
  10   2   0  667.56   48.17
 -10  -2   0  675.90   68.59
  10   2   0  789.19   88.26
 -10  -2  -1   96.63   19.43
  10   2   1  126.20   19.29
  10   2   1  127.50   36.90
 -10  -2  -1   94.02   29.20
 -10  -2  -2   13.92   10.39
  10   2   2    6.12    3.28
 -10  -2  -2    8.27   14.63
 -10  -2  -3   44.98   14.85
  10   2   3   26.72   20.94
 -10  -2  -3   56.31   24.42
 -10  -2  -4  813.58   66.30
 -10  -2  -4  776.55   92.44
 -10  -2  -5   36.36    7.33
  10   2   5   80.03   39.62
 -10  -2  -6   76.47   17.26
 -10  -2  -6   69.89   20.71
 -10  -2  -6   78.97   10.95
  10   2   6   67.22   28.88
 -10  -2  -6   80.39   30.01
 -10  -2  -7  573.59   48.99
 -10  -2  -7  539.01   56.08
 -10  -2  -7  556.62   35.21
 -10  -2  -7  566.73   71.21
  10   2   7  615.95  101.59
  10   2   8  552.97   57.77
 -10  -2  -8  543.35   44.60
 -10  -2  -8  507.78   53.78
 -10  -2  -8  530.15   37.19
 -10  -2  -8  536.01   62.45
  10   2   8  511.56   85.19
 -10  -2  -9   77.51   13.37
 -10  -2  -9   77.94   14.89
 -10  -2  -9   58.96   18.05
 -10  -2  -9   74.92   13.97
  10   2   9   76.46   18.26
  10   2   9  104.06   33.41
 -10  -2 -10   37.32    9.19
 -10  -2 -10   44.78    9.79
 -10  -2 -10   69.67   18.50
 -10  -2 -10   35.43    9.54
  10   2  10   25.41   11.27
 -10  -2 -11   35.61    8.51
 -10  -2 -11   37.38    8.06
 -10  -2 -11   36.97    9.20
 -10  -2 -12   25.56    6.45
 -10  -2 -12   23.20    6.15
 -10  -2 -13  337.08   22.51
 -10  -2 -13  297.19   22.68
 -10  -2 -13  316.28   22.00
 -10  -2 -14   81.20    9.51
 -10  -2 -14   87.87   11.14
 -10  -2 -14   92.04   10.30
 -10  -2 -15  190.97   12.98
 -10  -2 -15  194.99   12.82
 -10  -2 -15  193.31   13.40
 -10  -2 -15  181.65   12.83
 -10  -2 -16   51.79    5.05
 -10  -2 -16   47.17    4.89
 -10  -2 -16   55.31    5.34
  10   3  -7   29.00    5.31
  10   3  -7   30.97    5.81
  10   3  -7   41.90    7.37
  10   3  -7   40.53    7.17
  10   3  -6    9.17    3.12
  10   3  -6   13.57    4.49
  10   3  -6    7.46    2.75
  10   3  -6    9.21    4.90
  10   3  -5   44.53   10.40
  10   3  -5   41.38    7.79
  10   3  -5   43.66   11.05
  10   3  -4  111.84   14.64
  10   3  -4  103.83   16.66
  10   3  -4   84.37   17.97
  10   3  -3   30.25    9.09
  10   3  -3   26.49    7.29
  10   3  -3   29.01    8.68
  10   3  -2   13.51    5.91
 -10  -3   2    9.94    5.94
  10   3  -2   19.38    8.05
  10   3  -2   13.10    3.24
  10   3  -2   15.54   11.39
  10   3  -1   45.30   11.06
 -10  -3   1   51.03   12.19
  10   3  -1   47.49   10.97
 -10  -3   1   56.77   19.43
  10   3  -1   44.84   20.45
 -10  -3   0  149.70   22.47
  10   3   0  156.79   23.06
 -10  -3   0  141.30   31.50
  10   3   0  105.77   31.06
 -10  -3  -1   17.18   11.66
  10   3   1   28.72    9.66
 -10  -3  -1   24.62   14.01
  10   3   1   12.79   14.64
 -10  -3  -2   12.39    9.22
  10   3   2   20.57    9.10
 -10  -3  -2    7.97   13.67
  10   3   2   25.36   18.23
 -10  -3  -3   24.03    6.83
  10   3   3   33.42   10.62
 -10  -3  -3   20.10   19.33
 -10  -3  -4  119.14   24.23
 -10  -3  -4  105.88   32.15
 -10  -3  -5  126.83   28.69
 -10  -3  -5  100.24   12.48
 -10  -3  -6    3.83    8.71
 -10  -3  -6   -1.37    2.53
 -10  -3  -6    1.69    9.21
 -10  -3  -6   -2.80    7.29
 -10  -3  -6   -0.50    3.30
 -10  -3  -7   13.40   10.46
 -10  -3  -7   13.04    4.96
 -10  -3  -7   23.23   11.28
 -10  -3  -7   29.48   16.51
 -10  -3  -7   10.53    7.75
 -10  -3  -8  223.29   26.80
 -10  -3  -8  171.15   30.97
 -10  -3  -8  235.05   24.17
 -10  -3  -8  209.61   38.44
 -10  -3  -9   11.11    4.48
 -10  -3  -9   32.89   13.90
 -10  -3  -9   20.34    6.79
  10   3   9   12.56   10.17
 -10  -3 -10   22.75    7.28
 -10  -3 -10   32.11    9.17
 -10  -3 -10   30.42   12.79
 -10  -3 -10   27.74    8.14
  10   3  10   25.96    8.58
 -10  -3 -11   28.42    7.61
 -10  -3 -11   43.29    9.10
 -10  -3 -11   34.51    8.56
 -10  -3 -12    1.71    3.08
 -10  -3 -13  219.18   19.59
 -10  -3 -13  219.85   19.46
 -10  -3 -13  221.96   17.89
 -10  -3 -14    6.58    3.41
 -10  -3 -14    8.35    3.39
 -10  -3 -14    6.43    2.80
 -10  -3 -14    8.54    4.21
 -10  -3 -15   36.10    5.61
 -10  -3 -15   42.94    6.60
 -10  -3 -15   34.56    5.75
 -10  -3 -15   36.00    5.27
 -10  -3 -16   46.74    5.49
 -10  -3 -16   37.52    4.67
 -10  -3 -16   34.07    4.10
  10   4  -8    0.39    1.29
  10   4  -8   -1.10    1.68
  10   4  -7  201.47   14.78
  10   4  -7  248.25   18.87
  10   4  -7  242.33   17.45
  10   4  -6   89.43   10.67
  10   4  -6   97.60   13.23
  10   4  -6   94.96   14.79
  10   4  -6  101.83   13.33
  10   4  -5   -0.66    3.69
  10   4  -5    6.29    2.56
  10   4  -5    0.66    4.81
  10   4  -4   -2.30    5.62
  10   4  -4    1.10    3.82
  10   4  -4    8.32    8.77
  10   4  -3  236.41   25.66
  10   4  -3  252.64   24.75
  10   4  -2   67.81   13.28
 -10  -4   2   50.37   10.49
  10   4  -2   53.47   21.55
  10   4  -1  210.40   25.18
 -10  -4   1  222.38   25.42
  10   4  -1  284.61   31.80
 -10  -4   1  202.38   35.10
  10   4  -1  244.77   43.26
  10   4   0   11.35    5.32
 -10  -4   0   14.88    7.30
  10   4   0   31.08   11.84
 -10  -4   0   20.84   11.33
  10   4   0    8.75    8.17
 -10  -4  -1  844.19   60.82
  10   4   1  834.49   58.96
 -10  -4  -1  941.29   89.13
  10   4   1  679.36   75.56
 -10  -4  -2    3.65    7.63
 -10  -4  -2   -5.19   13.93
 -10  -4  -3  459.66   47.20
 -10  -4  -3  382.12   62.34
 -10  -4  -4  248.18   35.54
 -10  -4  -4  194.98   45.31
 -10  -4  -5  335.55   47.74
 -10  -4  -6  189.80   28.55
 -10  -4  -6  185.10   18.48
 -10  -4  -6  198.10   35.37
 -10  -4  -6  145.12   36.07
 -10  -4  -6  170.66   18.21
 -10  -4  -7  524.92   46.28
 -10  -4  -7  464.71   29.97
 -10  -4  -7  412.82   50.45
 -10  -4  -7  501.35   34.53
 -10  -4  -7  509.38   66.44
 -10  -4  -8    1.90    4.95
 -10  -4  -8    1.45    3.39
 -10  -4  -8   -1.74   12.63
 -10  -4  -8   -6.19    7.69
 -10  -4  -8    3.33    3.68
 -10  -4  -9   44.64   11.88
 -10  -4  -9   30.61    6.84
 -10  -4  -9   50.85   18.76
 -10  -4  -9   33.09    9.19
 -10  -4 -10  445.51   34.23
 -10  -4 -10  365.00   30.08
 -10  -4 -10  514.75   52.29
 -10  -4 -11  260.62   23.65
 -10  -4 -11  230.18   19.29
 -10  -4 -11  284.73   26.71
 -10  -4 -12   12.25    4.07
 -10  -4 -12   11.47    5.57
 -10  -4 -13   33.77    7.88
 -10  -4 -13   26.93    5.56
 -10  -4 -13   24.06    6.90
 -10  -4 -13   31.22    7.13
 -10  -4 -13   36.32    6.75
 -10  -4 -14  122.54   12.00
 -10  -4 -14  139.10   14.38
 -10  -4 -14  116.61   12.93
 -10  -4 -14  105.55    9.64
 -10  -4 -14  130.27   11.83
 -10  -4 -15    2.24    2.11
 -10  -4 -15    2.98    1.51
 -10  -4 -15    2.07    1.52
 -10  -4 -16   31.89    4.67
 -10  -4 -16   30.37    4.37
  10   5  -8    2.34    1.85
  10   5  -8    3.15    1.46
  10   5  -7  232.17   17.33
  10   5  -7  258.26   18.43
  10   5  -6   77.33   10.89
  10   5  -6  107.58   14.69
  10   5  -6  102.85   12.18
  10   5  -5   15.98    4.45
  10   5  -5   11.56    6.46
  10   5  -4    6.86    2.67
  10   5  -4    3.99    4.39
  10   5  -4   -4.95    3.81
  10   5  -3  437.99   34.63
 -10  -5   3  413.79   28.05
  10   5  -3  347.34   33.33
  10   5  -2   91.88   17.02
 -10  -5   2   95.57   13.62
  10   5  -2   54.13   14.98
  10   5  -2   87.46   23.97
 -10  -5   2   90.57   13.29
  10   5  -1  168.54   24.22
 -10  -5   1  185.49   34.74
  10   5  -1  139.29   29.79
  10   5   0    7.39    8.18
 -10  -5   0    8.77   15.82
  10   5   0    3.99    8.11
 -10  -5   0   12.52   10.80
 -10  -5  -1  791.06   83.31
 -10  -5  -1  630.92   53.65
 -10  -5  -2   18.19   15.46
 -10  -5  -2   -1.23    4.54
 -10  -5  -3  638.05   81.30
 -10  -5  -3  560.30   53.89
 -10  -5  -4  310.56   57.92
 -10  -5  -4  333.41   41.47
 -10  -5  -4  383.49   52.75
 -10  -5  -5  381.39   23.11
 -10  -5  -6  152.09   38.47
 -10  -5  -6  141.88   27.77
 -10  -5  -6  156.91   17.00
 -10  -5  -6  125.34   13.25
 -10  -5  -7  323.91   54.33
 -10  -5  -7  341.56   37.02
 -10  -5  -7  323.08   25.33
 -10  -5  -7  283.83   42.66
 -10  -5  -7  307.80   22.12
 -10  -5  -8   -6.29    6.94
 -10  -5  -8    0.64    3.63
 -10  -5  -8    0.97    4.76
 -10  -5  -8    3.13    2.56
 -10  -5  -8    3.69    3.79
 -10  -5  -8   -2.71    4.29
 -10  -5  -9   15.19    9.37
 -10  -5  -9   17.43    6.38
 -10  -5  -9   12.60    5.49
 -10  -5  -9   29.00   14.90
 -10  -5 -10  690.23   39.89
 -10  -5 -10  665.01   62.29
 -10  -5 -10  754.21   42.61
 -10  -5 -11  377.68   31.61
 -10  -5 -11  388.08   27.92
 -10  -5 -11  322.95   27.37
 -10  -5 -12   50.94    9.29
 -10  -5 -12   29.15    6.86
 -10  -5 -12   34.26    9.23
 -10  -5 -12   41.29    7.78
 -10  -5 -13   61.94    9.59
 -10  -5 -13   41.40    7.58
 -10  -5 -13   54.69   10.67
 -10  -5 -13   60.83    8.69
 -10  -5 -14   69.22    8.64
 -10  -5 -14   72.80   10.35
 -10  -5 -14   67.41    7.76
 -10  -5 -15    4.16    1.69
 -10  -5 -15    3.31    1.93
 -10  -5 -15    4.67    2.00
 -10  -5 -15    4.25    2.06
 -10  -5 -16   34.29    5.27
 -10  -5 -16   34.40    4.03
  10   6  -7   80.24    8.88
  10   6  -7   92.73    9.06
  10   6  -6   57.88   10.04
  10   6  -6   66.41    9.19
  10   6  -6   58.84    9.05
 -10  -6   5   16.91    4.81
  10   6  -5   14.59    6.13
  10   6  -5   18.22    5.87
  10   6  -5   20.91    8.51
  10   6  -5   23.76    5.71
  10   6  -4  110.41   14.40
 -10  -6   4  114.33   14.07
  10   6  -4  139.55   16.83
 -10  -6   3   30.45    6.61
  10   6  -3   34.82    9.50
  10   6  -3   30.94    7.92
 -10  -6   2   38.37    9.81
  10   6  -2   29.81    9.11
  10   6  -2   18.14    5.19
 -10  -6   2   20.54    6.43
  10   6  -1  110.23   18.27
 -10  -6   1  122.97   17.02
  10   6  -1   95.87   19.56
  10   6  -1  104.32   26.03
 -10  -6   1  107.91   16.84
 -10  -6   1  119.06   27.52
 -10  -6   0   53.54   10.83
  10   6   0   41.77    9.95
 -10  -6   0   54.19   22.83
 -10  -6   0   57.22   14.16
  10   6   1  130.19   19.92
 -10  -6  -1  110.00   33.08
  10   6   1   85.75   32.82
 -10  -6  -2    5.37    5.50
  10   6   2   10.50   26.48
 -10  -6  -2   -1.27    6.75
 -10  -6  -3   11.52   10.56
 -10  -6  -3   15.00   12.15
 -10  -6  -3   13.40    9.15
 -10  -6  -4  210.22   46.49
  10   6   4  175.30   69.54
 -10  -6  -4  133.40   26.29
 -10  -6  -4  126.22   29.50
  10   6   5  119.61   56.88
 -10  -6  -5   75.19   21.80
 -10  -6  -5   83.70   10.41
 -10  -6  -6   13.90   16.81
  10   6   6   27.37   30.66
 -10  -6  -6   19.52   11.34
 -10  -6  -6   18.11    5.99
 -10  -6  -6   16.19    5.44
 -10  -6  -7    7.48   11.20
 -10  -6  -7    9.31    6.91
 -10  -6  -7    2.77    3.13
 -10  -6  -7   13.79    4.98
 -10  -6  -8   52.47   20.09
 -10  -6  -8   65.22   14.28
 -10  -6  -8   51.38   10.54
 -10  -6  -8   52.63    9.39
 -10  -6  -9   63.38   22.32
 -10  -6  -9   48.81   10.17
 -10  -6  -9   34.46    8.31
 -10  -6  -9   39.22    8.29
 -10  -6 -10   36.78    8.94
 -10  -6 -10   35.65   13.35
 -10  -6 -10   39.97    8.73
 -10  -6 -11   28.28    8.03
 -10  -6 -11   20.50    6.71
 -10  -6 -11   27.20    7.79
 -10  -6 -11   32.29    6.76
 -10  -6 -12    2.52    2.12
 -10  -6 -12    3.21    4.82
 -10  -6 -12   -5.13    5.18
 -10  -6 -12   -1.61    2.25
 -10  -6 -12    2.80    2.33
 -10  -6 -13  122.66   13.74
 -10  -6 -13  119.06   15.61
 -10  -6 -13  148.20   15.64
 -10  -6 -13  131.80   11.69
 -10  -6 -14   19.51    4.66
 -10  -6 -14   25.24    6.01
 -10  -6 -14   25.00    5.27
 -10  -6 -14   27.84    4.47
 -10  -6 -15   10.23    2.93
 -10  -6 -15   -0.94    1.59
 -10  -6 -16   17.61    3.12
 -10  -6 -16    0.38    0.35
  10   7  -7    7.51    3.35
  10   7  -7    7.09    2.60
  10   7  -7    4.16    1.50
 -10  -7   6   10.85    3.39
  10   7  -6   14.12    3.83
  10   7  -6    7.34    3.50
  10   7  -6    6.23    1.87
 -10  -7   5   56.61    8.82
  10   7  -5   63.65   11.33
  10   7  -5   52.45    9.44
  10   7  -5   65.73   10.34
  10   7  -4  255.26   22.50
 -10  -7   4  285.83   24.06
  10   7  -4  266.02   23.80
  10   7  -4  309.87   22.90
 -10  -7   3   36.37   10.68
  10   7  -3   36.60    9.08
  10   7  -3   45.37   10.18
  10   7  -2  171.22   20.80
 -10  -7   2  213.24   25.27
  10   7  -2  205.19   23.40
 -10  -7   2  188.25   21.11
 -10  -7   1   21.27    8.89
  10   7  -1   30.56   10.38
 -10  -7   1    3.04   14.79
  10   7  -1   27.49   11.32
  10   7  -1   27.39   13.21
 -10  -7   1   16.47    4.12
 -10  -7   1   17.05   11.83
  10   7   0  946.99   59.55
 -10  -7   0  833.14   48.36
 -10  -7   0 1035.33  104.61
 -10  -7   0  847.25   56.65
 -10  -7   0  877.17   88.57
  10   7   0  703.93   87.15
  10   7   1  178.57   27.62
 -10  -7  -1  138.33   16.67
 -10  -7  -1  126.68   22.31
 -10  -7  -1  120.80   29.17
  10   7   1  159.97   47.67
 -10  -7  -1  203.83   44.25
 -10  -7  -2   40.24   23.56
 -10  -7  -2   19.04   12.21
  10   7   2   34.89   27.45
 -10  -7  -2   47.52   21.55
 -10  -7  -3   79.70   31.65
 -10  -7  -3   74.22   18.05
 -10  -7  -3   32.04   13.22
 -10  -7  -4  905.20   66.51
 -10  -7  -4  879.29   99.67
  10   7   4 1157.03  189.83
 -10  -7  -4 1065.02   90.90
  10   7   5   40.19   43.14
 -10  -7  -5   38.44    8.34
 -10  -7  -5   39.28   16.18
 -10  -7  -6   50.06   21.00
 -10  -7  -6   71.13   17.40
  10   7   6   96.39   44.76
 -10  -7  -6   61.75   11.08
 -10  -7  -6   63.53   22.45
 -10  -7  -6   64.12    9.83
 -10  -7  -7  665.83   50.33
 -10  -7  -7  684.69   79.34
  10   7   7  763.28  115.53
 -10  -7  -7  505.77   34.43
 -10  -7  -7  606.33   66.81
 -10  -7  -7  553.33   32.26
 -10  -7  -8  490.39   40.00
 -10  -7  -8  455.77   62.10
  10   7   8  517.37   79.44
 -10  -7  -8  430.93   31.04
 -10  -7  -8  423.90   28.58
 -10  -7  -9   66.14   13.85
 -10  -7  -9   56.29   21.03
 -10  -7  -9   69.24   12.23
 -10  -7  -9   64.20   11.24
 -10  -7 -10    3.73    6.26
 -10  -7 -10   13.56    6.79
 -10  -7 -11   50.09   10.56
 -10  -7 -11   60.40   11.36
 -10  -7 -11   48.41    9.95
 -10  -7 -12   27.02    8.80
 -10  -7 -12   32.49    7.34
 -10  -7 -13  301.19   22.79
 -10  -7 -13  341.02   22.95
 -10  -7 -14   55.69    8.32
 -10  -7 -14   53.56    7.52
 -10  -7 -15  181.20   13.45
 -10  -7 -15  209.99   14.84
 -10  -7 -16   70.90    6.76
 -10  -7 -16   62.06    6.13
  10   8  -7    9.39    2.54
  10   8  -7    7.54    1.88
 -10  -8   6   17.22    3.67
  10   8  -6   13.46    4.44
  10   8  -6   13.21    3.48
 -10  -8   5    5.82    4.20
  10   8  -5    5.21    3.60
  10   8  -5    2.39    1.74
  10   8  -4  437.16   28.74
 -10  -8   4  446.05   32.50
  10   8  -3  136.17   16.18
 -10  -8   3  134.41   19.39
  10   8  -2  107.16   16.01
 -10  -8   2  136.14   20.66
 -10  -8   2   86.56   14.47
 -10  -8   1   20.81    6.58
  10   8  -1   31.19   10.34
 -10  -8   1   30.56   15.37
  10   8  -1    2.30    7.16
 -10  -8   1   21.03    9.80
  10   8   0  697.20   49.80
 -10  -8   0  682.35   43.34
 -10  -8   0  682.43   81.09
 -10  -8   0  638.28   49.80
 -10  -8   0  674.24   81.17
  10   8   0  617.98   81.30
 -10  -8  -1    2.42    3.97
  10   8   1    1.19    9.19
 -10  -8  -1  -13.39   18.24
  10   8   1   26.06   23.10
 -10  -8  -1   -1.10    7.90
 -10  -8  -1    8.85   11.94
  10   8   2   -9.07   15.70
 -10  -8  -2    4.42    4.79
 -10  -8  -2    4.77    6.93
  10   8   2   13.02   15.67
 -10  -8  -2    6.33    8.82
 -10  -8  -2    5.05   12.24
 -10  -8  -3   82.48   19.44
 -10  -8  -3   97.92   37.05
 -10  -8  -3  104.15   27.97
 -10  -8  -4  763.42   63.89
 -10  -8  -4  780.24   98.72
  10   8   4 1072.08  207.52
 -10  -8  -4  871.45   84.11
  10   8   5   10.57   46.18
 -10  -8  -5   19.74    9.81
 -10  -8  -6   -2.44    6.57
  10   8   6   -8.07   14.18
 -10  -8  -6   -9.70    9.95
 -10  -8  -6    1.87    4.74
 -10  -8  -6   -0.44    2.79
 -10  -8  -7  229.50   29.95
 -10  -8  -7  227.52   47.69
 -10  -8  -7  196.59   20.83
 -10  -8  -7  187.23   17.75
 -10  -8  -8  472.20   40.47
 -10  -8  -8  463.95   65.43
  10   8   8  531.10   83.14
 -10  -8  -8  424.69   31.80
 -10  -8  -8  426.56   28.64
 -10  -8  -9  103.65   27.01
  10   8   9   91.76   28.55
 -10  -8  -9   96.14   16.70
 -10  -8  -9   89.55   13.42
 -10  -8  -9   92.38   12.81
 -10  -8 -10   13.83    7.19
 -10  -8 -10   15.18    5.71
 -10  -8 -10    9.89    3.23
 -10  -8 -11  167.54   19.34
 -10  -8 -11  137.87   17.46
 -10  -8 -11  136.41   18.80
 -10  -8 -11  161.57   17.14
 -10  -8 -12   40.72    9.40
 -10  -8 -12   36.90    8.75
 -10  -8 -12   45.02    7.39
 -10  -8 -13  116.96   13.19
 -10  -8 -13   83.54   11.74
 -10  -8 -13  110.04   11.00
 -10  -8 -14   49.08    7.83
 -10  -8 -14   46.67    7.40
 -10  -8 -14   50.46    6.46
 -10  -8 -15  177.22   12.78
 -10  -8 -15  167.52   12.33
  10   9  -6    1.07    1.46
 -10  -9   6    1.19    1.05
  10   9  -6    2.50    1.80
 -10  -9   5    3.40    1.95
  10   9  -5    2.53    2.69
  10   9  -5   -0.35    1.68
  10   9  -4  137.21   14.61
 -10  -9   4  164.29   18.65
 -10  -9   3    7.60    5.84
  10   9  -3   -0.53    2.75
 -10  -9   2    7.50    2.99
  10   9  -2    5.01    4.00
 -10  -9   2    2.30    4.70
 -10  -9   1   31.14    9.81
  10   9  -1   21.78    7.66
 -10  -9   1   19.71    8.65
 -10  -9   0   86.34   14.54
  10   9   0   66.35   13.83
 -10  -9   0   80.03   31.80
  10   9   0  107.53   34.22
 -10  -9   0   98.43   19.13
  10   9   1  286.61   33.67
 -10  -9  -1  216.95   21.88
 -10  -9  -1  198.14   45.31
 -10  -9  -1  197.13   46.83
 -10  -9  -1  217.64   31.02
  10   9   1  279.42   66.14
  10   9   2   -2.90    8.03
 -10  -9  -2   -2.55    9.41
 -10  -9  -2    3.55    9.74
  10   9   2   -7.14   32.75
 -10  -9  -2   27.13   10.56
  10   9   3   72.23   25.90
 -10  -9  -3   34.26   22.06
 -10  -9  -3   51.69   14.01
 -10  -9  -3   45.36   10.93
 -10  -9  -3   61.74   23.05
 -10  -9  -4   23.70   17.25
  10   9   4   15.59   38.71
 -10  -9  -4   15.97    6.57
 -10  -9  -4   18.55    7.47
 -10  -9  -4   21.63    6.71
  10   9   5  174.69  100.49
 -10  -9  -5  135.78   17.65
 -10  -9  -6   32.57   21.55
  10   9   6   83.42   61.96
 -10  -9  -6   22.55   11.97
 -10  -9  -6   30.39    6.77
 -10  -9  -7   26.03   12.57
  10   9   7   48.13   28.32
 -10  -9  -7   21.23    8.10
 -10  -9  -7   19.99    6.21
 -10  -9  -8  149.55   39.45
 -10  -9  -8  182.80   26.60
  10   9   8  201.11   52.31
 -10  -9  -8  141.47   17.71
 -10  -9  -8  140.33   16.47
 -10  -9  -8  153.35   16.24
 -10  -9  -9    1.79    4.44
 -10  -9  -9    3.30    4.68
 -10  -9  -9    3.56    2.54
 -10  -9  -9   -0.53    3.27
 -10  -9 -10  159.20   20.65
 -10  -9 -10  120.64   16.77
 -10  -9 -10  158.04   16.16
 -10  -9 -11   -1.61    1.87
 -10  -9 -11   -1.35    4.34
 -10  -9 -11    1.12    2.45
 -10  -9 -12    5.59    2.90
 -10  -9 -12    3.40    3.68
 -10  -9 -12    9.68    2.69
 -10  -9 -13   76.17   10.02
 -10  -9 -13   65.44    9.34
 -10  -9 -14    4.15    2.84
 -10  -9 -14    1.62    1.31
 -10  -9 -15   54.60    6.30
 -10  -9 -15   61.29    6.15
 -10  -9 -15   49.79    5.07
  10  10  -6   98.05    8.70
 -10 -10   6  102.99    8.44
 -10 -10   5    9.00    3.57
  10  10  -5    8.42    3.28
  10  10  -5    8.99    3.23
 -10 -10   4    7.13    2.84
  10  10  -4    5.50    3.44
  10  10  -4   15.10    4.97
  10  10  -3  167.34   16.73
 -10 -10   3  173.75   20.05
 -10 -10   2    2.79    3.80
  10  10  -2    6.08    3.66
  10  10  -1  210.28   22.43
 -10 -10   1  246.27   24.60
 -10 -10   1  212.35   25.68
  10  10   0  116.80   18.38
 -10 -10   0  134.29   17.73
 -10 -10   0  109.54   20.77
  10  10   1  799.96   54.21
 -10 -10  -1  730.00   48.69
 -10 -10  -1  617.90   53.80
  10  10   1  773.92  108.56
  10  10   2   -6.52    9.58
 -10 -10  -2   10.01    5.23
 -10 -10  -2   -7.89   19.22
  10  10   2    7.28   21.52
 -10 -10  -2    4.20    8.89
  10  10   3  522.94   55.73
 -10 -10  -3  293.06   27.71
 -10 -10  -3  298.19   70.13
 -10 -10  -3  284.93   38.56
  10  10   3  532.38  144.10
  10  10   4  210.81   44.40
 -10 -10  -4   79.81   39.94
  10  10   4  112.23  114.96
 -10 -10  -4   76.26   20.05
 -10 -10  -4   71.03   13.67
 -10 -10  -5  271.75   25.43
 -10 -10  -5  234.01   19.44
 -10 -10  -6  238.39   61.07
 -10 -10  -6  187.98   30.67
 -10 -10  -6  186.02   21.07
 -10 -10  -6  158.39   15.92
 -10 -10  -7  464.30   45.72
 -10 -10  -7  449.80   75.04
 -10 -10  -7  407.30   31.41
 -10 -10  -7  354.12   24.87
 -10 -10  -8   11.02    7.95
 -10 -10  -8   17.30    6.10
 -10 -10  -9   25.78    8.19
 -10 -10  -9    9.90    5.13
 -10 -10 -10  212.49   22.89
 -10 -10 -11  136.55   14.66
 -10 -10 -11  137.77   17.76
 -10 -10 -12    3.06    2.86
 -10 -10 -12    0.52    2.03
 -10 -10 -13   17.04    4.65
 -10 -10 -13   12.64    3.66
 -10 -10 -14  113.60    9.73
 -10 -10 -14  116.97    8.52
 -10 -11   5   19.21    4.58
  10  11  -5   17.76    3.84
 -10 -11   4    4.73    2.89
  10  11  -4   -1.58    1.12
  10  11  -4    6.51    2.96
  10  11  -3  216.93   17.81
 -10 -11   3  205.88   18.83
 -10 -11   3  223.91   19.80
 -10 -11   2   -1.65    2.80
  10  11  -2   -2.81    2.48
 -10 -11   2    3.10    5.06
  10  11  -1  205.92   20.29
 -10 -11   1  246.48   25.15
  10  11   0   30.84    9.18
 -10 -11   0   34.69    9.66
  10  11   1  316.06   30.00
 -10 -11  -1  319.49   25.27
 -10 -11  -1  303.78   29.28
 -10 -11  -1  251.11   33.71
  10  11   2   26.08   13.28
 -10 -11  -2    3.60    5.96
 -10 -11  -2    1.47   11.74
 -10 -11  -3  154.65   19.57
 -10 -11  -3  132.69   27.04
  10  11   4   33.66   19.15
 -10 -11  -4   15.22   14.33
 -10 -11  -4   17.93    7.18
 -10 -11  -5  217.41   22.82
 -10 -11  -5  196.07   17.36
 -10 -11  -6   71.70   23.90
 -10 -11  -6   73.84   12.81
 -10 -11  -6   76.20   10.39
 -10 -11  -7  112.85   23.89
 -10 -11  -7  118.49   16.24
 -10 -11  -7   90.72   11.67
 -10 -11  -8   22.04    5.96
 -10 -11  -8   22.15    5.84
 -10 -11  -9   59.92   12.45
 -10 -11  -9   46.07    7.72
 -10 -11 -10  149.71   15.22
 -10 -11 -11  216.90   17.21
 -10 -11 -12   30.21    5.69
 -10 -11 -13    0.17    0.79
 -10 -12   4   24.35    4.64
  10  12  -4   26.91    4.58
  10  12  -3    0.20    0.42
  10  12  -3    8.78    3.22
  10  12  -2   25.59    5.56
 -10 -12   1   50.53    9.09
  10  12  -1   41.44    7.89
 -10 -12   1   49.03    9.11
  10  12   0   55.01    9.95
 -10 -12   0   65.04   10.29
 -10 -12   0   49.16   10.34
  10  12   1   27.63    8.89
 -10 -12  -1   20.50    6.50
  10  12   2   10.62    5.30
 -10 -12  -2    5.20    3.18
  10  12   3    3.17    7.67
 -10 -12  -3    1.29    3.06
  10  12   4   95.89   20.73
 -10 -12  -4   90.36   13.70
  10  12   5  111.54   30.43
 -10 -12  -5   68.34   12.40
 -10 -12  -6    4.44    4.89
 -10 -12  -7    5.76    5.30
 -10 -12  -8   32.00    9.49
 -10 -12  -9   56.67    8.57
 -10 -12  -9   57.47   11.28
 -10 -12 -10   17.69    4.61
 -10 -12 -10   15.37    5.23
 -10 -12 -11   -0.22    1.02
 -10 -12 -11   18.31    5.07
 -10 -12 -12    9.67    3.49
  10  13  -2   56.77    7.08
  10  13  -1    0.69    2.03
  10  13   0  264.89   20.28
  10  13   1   -0.51    3.52
 -10 -13  -1    1.51    3.40
  10  13   2    0.62    4.41
 -10 -13  -2    2.23    3.30
 -10 -13  -3   66.74   11.27
 -10 -13  -3   83.89   10.44
 -10 -13  -4  356.49   28.13
 -10 -13  -4  341.42   22.62
 -10 -13  -5    6.64    2.17
 -10 -13  -5    2.73    3.84
 -10 -13  -6    1.83    4.78
 -10 -13  -6    6.09    3.85
 -10 -13  -7   91.72   14.47
 -10 -13  -7   91.17   10.39
 -10 -13  -8  180.88   18.49
 -10 -13  -8  199.68   14.68
 -10 -13  -9   34.81    7.64
 -10 -13 -10   11.38    4.34
 -10 -13 -11   81.39    8.14
  10  14   0  232.23   16.45
 -10 -14   0  256.94   16.50
  10  14   1    4.00    2.92
 -10 -14  -1    2.00    1.80
  10  14   2   -0.89    2.17
 -10 -14  -2    4.92    2.63
  10  14   3   28.19    6.57
 -10 -14  -3   27.42    5.74
 -10 -14  -4  230.07   21.37
 -10 -14  -4  222.52   15.79
  10  14   5   -1.39    3.87
 -10 -14  -5   -0.54    2.67
 -10 -14  -5    1.41    1.82
 -10 -14  -6    3.58    4.12
 -10 -14  -6    2.53    1.57
 -10 -14  -7   60.16    9.95
 -10 -14  -7   76.33    8.19
 -10 -14  -8  173.85   16.27
  11  -4   1   -6.03   11.50
  11  -4   1   14.00    5.35
  11  -4   2   42.13   27.57
 -11   4  -2   25.42    8.75
  11  -4   2   52.79   10.78
 -11   4  -3  233.13   23.08
  11  -4   3  273.48   24.37
 -11   4  -4  295.99   27.16
  11  -4   5  455.38  164.68
  11  -4   6  218.38   74.95
 -11   4  -6   89.95   15.42
  11  -4   7  154.94   35.11
 -11   4  -7  141.62   14.97
  11  -4   8   52.76   15.02
  11  -3  -1    2.68    3.55
  11  -3  -1    0.46    2.28
  11  -3  -1   -0.50    3.17
  11  -3   0   14.68    7.12
 -11   3   0   16.71    4.66
  11  -3   1   27.36   14.62
 -11   3  -1   31.59    7.92
  11  -3   1   29.33    7.51
  11  -3   2   12.12   24.18
 -11   3  -2    6.73    4.10
  11  -3   2   12.96    5.79
  11  -3   3  264.15   91.60
 -11   3  -3  199.04   25.27
 -11   3  -4  217.04   27.76
  11  -3   5  281.91  121.48
  11  -3   6   74.76   58.78
 -11   3  -6   84.98   17.39
  11  -3   7   28.63   19.02
 -11   3  -7   23.16    5.18
  11  -3   8   -2.07   18.33
 -11   3  -8    5.31    3.66
  11  -3   9   31.01   14.03
 -11   3  -9   37.63    6.43
  11  -3  10    2.75    5.51
  11  -2  -3   30.91    6.71
  11  -2  -3   -2.90    2.32
  11  -2  -2   24.17    6.80
  11  -2  -2   16.88    5.72
  11  -2  -1   22.03   10.80
  11  -2  -1   26.45    8.27
 -11   2   0   63.53   10.49
  11  -2   0   75.44   12.74
  11  -2   1  252.74   51.39
 -11   2  -1  293.41   26.12
  11  -2   1  351.40   28.75
  11  -2   2   -4.70   19.99
 -11   2  -2    3.22    5.15
  11  -2   2    1.36    6.01
  11  -2   3    7.06   38.76
 -11   2  -3    5.24    9.97
 -11   2  -4    1.38    7.10
  11  -2   5   26.50   67.55
  11  -2   6  338.13   88.71
 -11   2  -6  169.60   25.99
  11  -2   7   52.40   34.63
 -11   2  -7   11.98    5.17
  11  -2   8   83.12   33.75
 -11   2  -8  155.24   20.33
  11  -2   9   17.20    9.02
 -11   2  -9   56.10    9.69
 -11   2 -10   31.23    5.66
  11  -2  10   18.87   11.70
 -11   2 -10   26.56    5.43
 -11   2 -11    8.85    3.19
 -11   2 -11    3.65    0.81
 -11   2 -12   19.79    3.93
  11  -1  -4    3.25    3.70
  11  -1  -3  182.02   17.38
  11  -1  -3   -1.05    2.24
  11  -1  -2   24.00    6.64
  11  -1  -2   -2.45    3.65
 -11   1   1   63.07    9.98
  11  -1  -1   73.31   12.82
 -11   1   0  268.65   23.41
  11  -1   0  323.51   28.01
  11  -1   1  673.19   78.31
 -11   1  -1  632.50   42.74
  11  -1   1  702.94   44.62
 -11   1  -2    6.39    8.93
  11  -1   2   36.83   10.67
  11  -1   2   21.15   23.24
 -11   1  -3   13.24   16.13
  11  -1   3   28.36   47.34
 -11   1  -4   31.59   14.12
  11  -1   5   83.25   40.52
  11  -1   6  256.92   62.95
 -11   1  -7  164.58   24.34
  11  -1   7  217.44   49.03
 -11   1  -8  553.63   29.59
 -11   1  -8  543.72   40.70
 -11   1  -9  204.78   18.11
 -11   1  -9  191.01   20.55
 -11   1 -10   32.95    8.04
  11  -1  10   46.01   17.92
 -11   1 -10   34.63    6.99
 -11   1 -11    8.34    3.46
 -11   1 -12   88.83   10.66
 -11   1 -12   77.71    7.98
 -11   1 -13    5.69    1.82
 -11   1 -13    2.87    1.10
 -11   1 -13    5.84    2.24
  11   0  -4   10.56    3.04
  11   0  -3   46.92    6.91
  11   0  -3    0.40    1.56
  11   0  -2   78.64    9.82
  11   0  -2   90.18   14.34
 -11   0   1   57.58    9.82
  11   0  -1   73.24   13.41
  11   0  -1   69.95   21.30
 -11   0   0  110.50   16.18
  11   0   0  147.32   19.46
  11   0   0  123.52   28.90
  11   0   1  474.86   59.64
 -11   0  -1  395.53   34.23
  11   0   1  436.90   35.24
  11   0   2   11.06   20.53
 -11   0  -2   16.22   10.46
  11   0   2   16.55    8.98
  11   0   3   38.77   23.98
 -11   0  -3   56.57   18.96
 -11   0  -4    1.39    6.11
  11   0   5   -4.03   16.93
  11   0   6  199.59   48.80
 -11   0  -7   87.93   10.43
  11   0   7  122.60   34.95
 -11   0  -7  127.47   22.27
 -11   0  -8  291.50   22.25
  11   0   8  268.59   47.48
 -11   0  -8  272.41   30.15
 -11   0  -9  139.30   16.30
  11   0   9   95.97   25.33
 -11   0  -9  133.00   17.38
 -11   0 -10   12.24    7.14
  11   0  10    9.44   11.60
 -11   0 -10   10.68    5.20
 -11   0 -11   19.07    7.43
  11   0  11   23.54   14.85
 -11   0 -11   -2.58    3.99
 -11   0 -12   40.58    7.60
 -11   0 -13    9.14    3.46
 -11   0 -13    6.40    2.27
 -11   0 -13    4.81    2.33
 -11   0 -14  117.54    9.00
 -11   0 -14  111.64    7.79
 -11   0 -14  136.14    9.99
  11   1  -5   38.80    5.85
  11   1  -5   34.41    5.09
  11   1  -5   25.78    6.75
  11   1  -4  162.88   13.89
  11   1  -4  162.43   13.22
  11   1  -4  187.23   20.39
  11   1  -3   37.80    7.03
  11   1  -2  305.78   24.09
  11   1  -2  259.70   25.45
  11   1  -1   20.44    7.21
 -11  -1   1   15.14    6.31
  11   1  -1   19.51    8.01
  11   1  -1    7.65    7.19
  11   1   0    8.72    6.84
 -11  -1   0    1.38    4.04
  11   1   0    4.74    5.01
  11   1   0    4.44    5.73
  11   1   1   64.60   15.46
 -11  -1  -1   68.60   14.66
  11   1   1   43.39   10.30
  11   1   1   98.14   25.86
 -11  -1  -2   15.55    9.00
  11   1   2    5.10    6.33
  11   1   2   27.64   17.18
 -11  -1  -2   18.95   18.30
 -11  -1  -3  253.21   35.88
  11   1   3  340.23   33.50
  11   1   3  360.42   59.04
  11   1   3  343.94   75.74
 -11  -1  -3  230.44   48.43
 -11  -1  -4  164.07   25.91
 -11  -1  -4   94.95   29.54
 -11  -1  -5   44.69   16.05
 -11  -1  -5   46.16   16.50
  11   1   5   39.04   25.57
  11   1   5  -14.77   23.36
 -11  -1  -6  195.76   31.15
 -11  -1  -6  182.73   16.12
  11   1   6  246.71   52.53
  11   1   6  178.09   59.30
 -11  -1  -6  156.93   38.19
 -11  -1  -7    9.97    7.56
 -11  -1  -7   12.56    4.70
  11   1   7    4.70    9.67
 -11  -1  -7    9.85    8.86
 -11  -1  -8    3.69    4.46
 -11  -1  -8   11.82    6.86
  11   1   8   17.82   13.02
 -11  -1  -9   38.94   11.16
 -11  -1  -9   34.10    8.07
  11   1   9   20.02    9.73
 -11  -1 -10    8.58    3.98
 -11  -1 -10    6.00    4.00
  11   1  10    4.08    9.16
  11   1  11  265.04   34.49
 -11  -1 -11  332.58   26.79
 -11  -1 -11  311.67   22.57
 -11  -1 -12    9.05    4.62
 -11  -1 -13   19.63    5.69
 -11  -1 -13   18.18    5.85
 -11  -1 -14    4.34    2.23
 -11  -1 -14    5.09    2.25
  11   2  -5   32.49    5.97
  11   2  -5   35.49    5.80
  11   2  -5   35.69    7.53
  11   2  -4  441.51   25.95
  11   2  -4  484.03   27.17
  11   2  -4  444.44   33.38
  11   2  -3  170.32   16.56
  11   2  -3  161.41   21.72
  11   2  -2  436.61   40.12
  11   2  -2  570.55   38.19
  11   2  -2  527.21   37.97
  11   2  -1   -1.47    3.57
 -11  -2   1    1.22    3.61
  11   2  -1    8.69    6.26
  11   2  -1   -1.11    3.74
  11   2   0   32.98    9.46
 -11  -2   0   42.92   11.54
  11   2   0   61.17   14.52
  11   2   0   29.92   13.67
 -11  -2  -1    3.70    6.25
  11   2   1   -0.90    4.38
 -11  -2  -1    9.84   13.14
  11   2   1    6.42    6.67
  11   2   1    9.58   17.81
 -11  -2  -2    1.19   10.85
  11   2   2   16.03   12.86
 -11  -2  -2  -10.20   13.27
  11   2   2   -2.04   10.93
  11   2   2  -14.32   11.38
  11   2   3  450.31   62.39
 -11  -2  -3  435.61   44.70
  11   2   3  543.40   45.15
 -11  -2  -4  441.39   47.76
  11   2   4  789.31   55.73
 -11  -2  -4  455.95   69.32
  11   2   4  786.06  118.00
 -11  -2  -5   87.75   23.93
 -11  -2  -5  221.79   39.71
  11   2   5  171.02   50.99
  11   2   5   85.23   45.72
 -11  -2  -6  263.55   37.92
  11   2   6  289.41   53.89
  11   2   6  315.52   82.80
 -11  -2  -6  189.27   43.34
 -11  -2  -7  167.80   25.20
 -11  -2  -7  182.52   31.10
 -11  -2  -7  187.80   42.14
 -11  -2  -7  169.48   16.82
  11   2   7  123.06   30.53
  11   2   7  235.43   68.12
 -11  -2  -8   15.33    6.08
 -11  -2  -8   19.00    8.84
 -11  -2  -8   14.92    9.62
 -11  -2  -8   16.71    9.94
 -11  -2  -8   12.35    4.63
  11   2   8   24.79   11.19
  11   2   8    8.99   13.85
 -11  -2  -9   19.68    6.95
 -11  -2  -9   31.13    8.56
 -11  -2  -9   25.87    8.09
  11   2   9   35.38   15.70
 -11  -2 -10   67.10   10.38
 -11  -2 -10  102.94   14.62
 -11  -2 -10   83.95   13.60
  11   2  10  107.81   21.34
 -11  -2 -11  603.11   32.05
  11   2  11  604.12   48.23
 -11  -2 -11  646.47   35.74
 -11  -2 -11  604.00   37.36
 -11  -2 -12  159.95   16.72
 -11  -2 -12  134.97   12.68
 -11  -2 -13   40.29    8.41
 -11  -2 -13   47.56    7.21
 -11  -2 -14    1.31    2.23
 -11  -2 -14    3.11    1.55
 -11  -2 -14    7.14    3.38
 -11  -2 -14    4.70    2.96
 -11  -2 -15  205.01   11.92
 -11  -2 -15  201.66   11.70
  11   3  -6   35.02    4.94
  11   3  -6   37.54    5.47
  11   3  -6   51.08    7.89
  11   3  -6   46.88    6.68
  11   3  -5   12.67    4.99
  11   3  -5    6.17    2.63
  11   3  -5    9.37    3.28
  11   3  -4  195.58   16.92
  11   3  -4  230.50   19.85
  11   3  -4  202.45   21.58
  11   3  -3   56.63   10.88
  11   3  -3   39.48    8.59
  11   3  -3   35.38   10.35
  11   3  -2  257.89   22.89
  11   3  -2  279.30   29.51
  11   3  -2  314.41   28.12
  11   3  -1   -2.28    4.33
 -11  -3   1   -3.25    5.28
  11   3  -1    5.74    7.28
  11   3  -1    6.93    5.04
 -11  -3   0    4.73    5.49
  11   3   0   11.01    7.13
  11   3   0    7.10    4.63
  11   3   0   -5.23   11.45
 -11  -3  -1   14.83    7.76
  11   3   1   20.29    8.00
 -11  -3  -1    8.36    7.70
  11   3   1   16.31   11.97
  11   3   1   13.74   17.14
 -11  -3  -2   12.94    7.73
  11   3   2   33.89   15.41
 -11  -3  -2   10.11    9.14
  11   3   2    6.12   16.57
 -11  -3  -3  210.95   30.81
 -11  -3  -3  184.21   40.74
 -11  -3  -4  287.50   37.77
 -11  -3  -4  243.87   47.70
 -11  -3  -5   36.50   16.70
 -11  -3  -5   52.54   10.88
 -11  -3  -5   62.15   22.88
  11   3   5   58.63   42.85
 -11  -3  -6  140.55   15.01
 -11  -3  -6  116.54   26.61
 -11  -3  -6   91.62   28.81
  11   3   6  159.04   56.52
 -11  -3  -7  130.17   22.94
 -11  -3  -7  123.00   26.30
 -11  -3  -7  146.54   35.74
 -11  -3  -7  122.81   15.26
  11   3   7  221.03   64.18
 -11  -3  -8   -7.77    7.63
 -11  -3  -8   14.59    8.74
 -11  -3  -8   23.29   15.13
 -11  -3  -8    6.91    4.21
  11   3   8   14.82   15.15
  11   3   8   17.88   11.20
 -11  -3  -9   15.67    5.66
 -11  -3  -9   11.27    6.47
 -11  -3  -9   26.37   12.69
 -11  -3  -9   19.70    7.25
  11   3   9   18.71    5.31
  11   3   9   20.37   19.02
 -11  -3 -10   28.21    7.11
 -11  -3 -10   15.23    6.36
 -11  -3 -10   14.59    4.69
  11   3  10   35.61   12.35
 -11  -3 -11  253.59   23.08
 -11  -3 -11  231.83   20.55
  11   3  11  235.02   27.06
 -11  -3 -12   24.96    7.05
 -11  -3 -12   27.65    6.44
 -11  -3 -13    1.48    2.74
 -11  -3 -13    2.66    3.76
 -11  -3 -13    9.35    4.52
 -11  -3 -14    8.83    3.39
 -11  -3 -14   10.49    3.26
 -11  -3 -14   13.56    3.91
 -11  -3 -15   75.59    6.81
 -11  -3 -15   78.77    7.71
 -11  -3 -15   76.38    6.90
  11   4  -6   29.13    4.82
  11   4  -6   32.51    5.44
  11   4  -6   43.87    6.67
  11   4  -5   54.41    7.59
  11   4  -5   59.62    9.12
  11   4  -5   66.18   11.42
  11   4  -5   61.90    9.28
  11   4  -4   36.85    8.86
  11   4  -4   33.09    6.97
  11   4  -4   34.95    9.46
  11   4  -3   16.30    6.17
  11   4  -3   26.01    7.47
  11   4  -3   22.53    8.80
  11   4  -2  100.65   14.38
  11   4  -2  110.64   17.76
  11   4  -2   69.51   15.65
  11   4  -2   72.98   12.71
  11   4  -1   54.64   11.22
 -11  -4   1   72.69   13.69
  11   4  -1   55.56   13.18
 -11  -4   0  111.50   18.03
 -11  -4   0  126.88   26.74
  11   4   0  104.13   28.24
 -11  -4  -1  548.32   47.25
  11   4   1  610.83   49.22
 -11  -4  -1  477.02   61.51
  11   4   1  433.31   60.66
 -11  -4  -2    9.38    6.20
 -11  -4  -2   -2.51   16.56
  11   4   2   10.84   11.01
 -11  -4  -3  103.65   23.10
 -11  -4  -3   59.38   18.50
 -11  -4  -4   14.76    9.86
 -11  -4  -4    8.15    6.64
 -11  -4  -4    2.86   11.84
  11   4   4   23.73   20.20
 -11  -4  -5    5.44    8.04
 -11  -4  -5   -1.88    8.35
  11   4   5   -9.84   26.84
 -11  -4  -6  268.87   21.77
 -11  -4  -6  243.92   39.35
 -11  -4  -6  281.60   52.29
 -11  -4  -7   77.59   19.42
 -11  -4  -7   56.57    9.20
 -11  -4  -7   62.40   19.27
 -11  -4  -7   57.65   21.22
 -11  -4  -8  346.09   35.08
 -11  -4  -8  367.95   24.87
 -11  -4  -8  287.35   42.36
 -11  -4  -8  335.64   29.49
 -11  -4  -8  308.15   48.07
 -11  -4  -9  190.70   24.30
 -11  -4  -9  202.69   22.13
 -11  -4  -9  212.04   37.59
  11   4   9  191.23   44.37
 -11  -4 -10   27.64    9.11
 -11  -4 -10   18.10    7.34
 -11  -4 -10   15.82    7.01
  11   4  10   37.87   11.61
 -11  -4 -11   44.57   10.08
  11   4  11   39.17    8.95
 -11  -4 -11   35.16    7.08
 -11  -4 -11   45.48    9.65
 -11  -4 -12    9.17    4.14
 -11  -4 -12    8.39    4.12
 -11  -4 -13   26.94    6.44
 -11  -4 -13   27.51    6.39
 -11  -4 -13   26.10    5.63
 -11  -4 -14  170.40   14.28
 -11  -4 -14  186.97   15.17
 -11  -4 -14  165.92   12.45
 -11  -4 -15   32.03    5.10
 -11  -4 -15   29.96    4.78
 -11  -4 -15   25.05    3.67
  11   5  -6  134.18   10.79
  11   5  -6  149.81   12.63
  11   5  -5  100.96   10.90
  11   5  -5  120.92   14.12
  11   5  -5  114.44   14.45
  11   5  -5  115.58   12.10
  11   5  -4    3.38    4.04
  11   5  -4    5.63    4.15
  11   5  -4    3.89    3.66
  11   5  -3  236.10   21.55
  11   5  -3  205.25   22.30
  11   5  -3  221.86   22.74
  11   5  -2   14.53    7.44
  11   5  -2   28.90    9.81
  11   5  -2   20.51    8.98
  11   5  -1   89.03   15.65
  11   5  -1   70.12   17.25
 -11  -5   1   92.24   13.90
 -11  -5   0  287.88   43.73
  11   5   0  244.63   44.34
 -11  -5  -1 1054.25   69.22
 -11  -5  -1 1079.85   98.32
  11   5   1  905.69   87.81
 -11  -5  -2   14.29    7.73
 -11  -5  -2   10.15   11.82
  11   5   2    9.89    5.77
 -11  -5  -3    1.29    7.75
 -11  -5  -3    4.64   13.53
 -11  -5  -3    2.73   10.42
 -11  -5  -4  138.35   25.96
 -11  -5  -4  133.41   35.49
 -11  -5  -5   51.38   15.77
 -11  -5  -5   64.54   12.17
 -11  -5  -6  286.68   23.77
 -11  -5  -6  260.80   41.88
 -11  -5  -6  234.86   51.33
 -11  -5  -7  215.27   29.39
 -11  -5  -7  258.97   21.66
 -11  -5  -7  224.59   36.38
 -11  -5  -7  250.49   47.04
 -11  -5  -8  556.14   47.40
 -11  -5  -8  583.00   35.04
 -11  -5  -8  552.63   60.59
 -11  -5  -8  596.29   68.43
 -11  -5  -9  255.28   29.00
 -11  -5  -9  239.78   20.54
 -11  -5  -9  254.30   41.22
 -11  -5 -10  159.81   16.91
 -11  -5 -10  159.84   18.23
 -11  -5 -11    4.38    2.80
 -11  -5 -11    1.39    1.34
 -11  -5 -11    4.85    3.50
 -11  -5 -12   86.58    9.75
 -11  -5 -12   89.15   13.80
 -11  -5 -12  103.87   12.15
 -11  -5 -13   36.50    5.68
 -11  -5 -13   34.23    7.89
 -11  -5 -13   47.35    7.01
 -11  -5 -14  264.78   18.74
 -11  -5 -14  207.61   12.53
 -11  -5 -14  245.88   14.22
 -11  -5 -15   74.03    7.84
 -11  -5 -15   61.79    6.87
 -11  -5 -15   61.18    5.44
  11   6  -6   46.78    6.09
  11   6  -6   51.52    6.30
  11   6  -5  100.90   10.67
  11   6  -5  108.96   11.90
  11   6  -4   38.62    9.16
  11   6  -4   35.93    7.10
  11   6  -4   28.57    7.70
  11   6  -4   38.88    7.10
  11   6  -3   81.67   12.94
  11   6  -3   79.34   12.54
  11   6  -2   87.51   14.31
  11   6  -2   86.05   15.22
  11   6  -1   61.43   13.50
  11   6  -1   48.97   13.76
 -11  -6   1   64.78   12.06
  11   6   0  190.17   26.43
  11   6   0  146.75   25.06
 -11  -6   0  194.81   23.77
  11   6   0  196.58   36.20
 -11  -6   0  169.99   34.88
 -11  -6  -1  557.27   68.83
 -11  -6  -1  650.74   47.90
  11   6   1  459.73   58.13
 -11  -6  -2    7.84   15.46
 -11  -6  -2   36.20   17.38
 -11  -6  -3   84.75   31.36
 -11  -6  -3   61.24   17.77
 -11  -6  -3  139.06   35.88
 -11  -6  -4    2.99    7.36
 -11  -6  -4   -1.41    5.66
 -11  -6  -4   13.04   14.12
 -11  -6  -4    5.75    3.91
 -11  -6  -5    8.58    7.24
 -11  -6  -5   -0.58    3.22
 -11  -6  -5   -2.06    5.54
 -11  -6  -5    2.08    3.28
 -11  -6  -6  297.62   54.58
 -11  -6  -6  297.46   24.68
 -11  -6  -6  275.68   19.84
 -11  -6  -7   60.87   23.83
 -11  -6  -7   59.10   10.69
 -11  -6  -7   67.77   22.56
 -11  -6  -7   48.67    8.82
 -11  -6  -8  351.06   52.46
 -11  -6  -8  367.14   34.81
 -11  -6  -8  327.98   25.43
 -11  -6  -8  327.99   23.45
 -11  -6  -9  216.49   24.31
 -11  -6  -9  204.36   36.13
 -11  -6  -9  179.33   18.45
 -11  -6 -10   20.45    6.54
 -11  -6 -10   13.69    6.38
 -11  -6 -11   27.37    8.82
 -11  -6 -11   21.41    5.70
 -11  -6 -11   26.30    6.71
 -11  -6 -11   18.74    4.89
 -11  -6 -12    9.27    3.61
 -11  -6 -12   11.67    6.61
 -11  -6 -12   16.32    6.36
 -11  -6 -12   10.75    2.79
 -11  -6 -13   29.39    5.58
 -11  -6 -13   41.23    8.84
 -11  -6 -13   36.09    7.68
 -11  -6 -13   33.48    5.12
 -11  -6 -14  179.54   11.64
 -11  -6 -14  211.87   16.38
 -11  -6 -14  217.00   14.58
 -11  -6 -15   22.76    3.45
 -11  -6 -15   35.49    5.53
  11   7  -6   33.48    5.23
  11   7  -6   31.30    4.69
  11   7  -5   20.15    4.81
  11   7  -5   21.26    4.82
  11   7  -5   14.31    3.92
  11   7  -4  234.64   18.93
  11   7  -4  230.62   18.68
  11   7  -3   35.50    6.71
  11   7  -3   45.33    8.22
  11   7  -2  386.81   29.76
  11   7  -2  422.48   30.03
  11   7  -1    1.51    4.59
  11   7  -1    0.70    6.04
 -11  -7   1    1.93    2.65
  11   7   0   14.56    5.86
 -11  -7   0   -0.79    5.28
  11   7   1    8.49    7.97
 -11  -7  -1   18.07    8.22
 -11  -7  -1   38.50   16.73
 -11  -7  -1   16.64   17.83
 -11  -7  -2   19.27    7.91
 -11  -7  -2    6.30    8.29
 -11  -7  -2   -7.81   15.62
 -11  -7  -3  226.75   32.50
 -11  -7  -3  214.43   46.42
  11   7   3  331.62   90.66
 -11  -7  -3  300.84   50.49
 -11  -7  -4  318.00   36.84
 -11  -7  -4  299.71   55.58
 -11  -7  -4  307.22   48.62
 -11  -7  -5   39.31   14.78
  11   7   5   18.31   35.68
 -11  -7  -5   78.79   13.48
 -11  -7  -5   48.97   21.23
 -11  -7  -5  102.65   11.52
 -11  -7  -6  264.21   52.82
  11   7   6  217.17   76.19
 -11  -7  -6  169.55   19.51
 -11  -7  -6  210.90   38.33
 -11  -7  -6  212.12   17.43
 -11  -7  -7   94.97   32.16
 -11  -7  -7  113.08   20.76
 -11  -7  -7   89.17   12.78
 -11  -7  -7   94.77   25.44
 -11  -7  -7   96.64   11.89
 -11  -7  -8   34.05   11.90
 -11  -7  -8   41.63   18.02
 -11  -7  -8    9.34    3.48
 -11  -7  -8   18.15    5.33
 -11  -7  -9   30.19    9.91
 -11  -7  -9   28.93    7.85
 -11  -7 -10   50.02   10.14
 -11  -7 -10   52.74    9.70
 -11  -7 -11  346.16   28.33
 -11  -7 -11  337.22   25.84
 -11  -7 -11  324.71   26.56
 -11  -7 -11  324.19   25.07
 -11  -7 -12   26.81    6.13
 -11  -7 -12   30.33    7.77
 -11  -7 -12   19.25    5.84
 -11  -7 -12   31.45    6.83
 -11  -7 -13    8.14    3.40
 -11  -7 -13   12.94    4.63
 -11  -7 -13    9.73    3.54
 -11  -7 -14   13.31    3.94
 -11  -7 -14   14.10    3.54
 -11  -7 -15   57.09    5.76
 -11  -7 -15   48.06    5.33
  11   8  -5   25.99    5.80
  11   8  -5   28.54    5.18
  11   8  -4  392.57   24.09
  11   8  -4  353.41   25.72
  11   8  -3  241.37   20.54
  11   8  -2  543.68   35.36
  11   8  -1   -1.44    3.11
 -11  -8   1    2.68    3.86
  11   8   0  101.42   17.90
 -11  -8   0   74.73   15.15
  11   8   1   12.56    8.35
 -11  -8  -1    1.97    5.06
  11   8   2   38.32   33.91
 -11  -8  -2   14.02    7.17
 -11  -8  -2   20.66   16.95
 -11  -8  -2   -2.59   14.35
 -11  -8  -3  500.06   46.39
 -11  -8  -3  562.82   78.48
 -11  -8  -3  582.51   72.70
 -11  -8  -4  533.33   49.94
 -11  -8  -4  569.81   81.31
 -11  -8  -4  518.44   64.69
 -11  -8  -5  154.76   25.90
  11   8   5  152.26   64.14
 -11  -8  -5  129.19   29.79
  11   8   6  223.17   82.09
 -11  -8  -6  237.94   52.46
 -11  -8  -6  264.00   25.13
 -11  -8  -6  224.40   41.88
 -11  -8  -6  244.53   19.24
 -11  -8  -7  169.43   25.94
 -11  -8  -7  189.02   42.93
 -11  -8  -7  173.26   19.12
 -11  -8  -7  163.10   15.79
 -11  -8  -8    7.91   10.83
 -11  -8  -8   22.07   10.59
 -11  -8  -8   17.13    5.44
 -11  -8  -8    8.88    3.64
 -11  -8  -9    8.94    7.13
 -11  -8  -9    5.75    4.10
 -11  -8  -9    7.18    5.20
 -11  -8 -10   95.75   15.14
 -11  -8 -10   84.69   13.32
 -11  -8 -10   88.60   12.70
 -11  -8 -11  719.38   41.23
 -11  -8 -11  734.38   42.96
 -11  -8 -11  747.41   38.80
 -11  -8 -12   98.41   13.04
 -11  -8 -12  138.89   14.08
 -11  -8 -13   33.00    6.26
 -11  -8 -13   31.86    5.57
 -11  -8 -14    7.52    2.45
 -11  -8 -14   10.32    3.15
 -11  -8 -14   10.70    2.82
  11   9  -5   31.31    5.47
  11   9  -5   26.72    4.85
  11   9  -4  160.34   13.59
  11   9  -4  153.09   14.97
  11   9  -3   72.16    9.79
 -11  -9   3   67.63   11.55
  11   9  -2  360.86   26.79
 -11  -9   2  445.70   35.21
  11   9  -1   17.48    5.54
 -11  -9   1   12.48    6.36
 -11  -9   1   28.58    9.82
  11   9   0   -1.71    4.88
 -11  -9   0   -6.02    8.12
  11   9   1   94.49   19.41
 -11  -9  -1   72.73   16.23
  11   9   2    9.05    7.21
 -11  -9  -2   10.17    8.22
 -11  -9  -3  364.62   66.87
 -11  -9  -3  404.03   43.69
 -11  -9  -3  455.15   36.00
 -11  -9  -4  218.53   51.22
 -11  -9  -4  191.91   29.82
 -11  -9  -4  208.68   23.08
 -11  -9  -4  182.03   36.95
  11   9   5   92.64   30.87
 -11  -9  -5  132.71   27.09
 -11  -9  -6  233.72   55.07
 -11  -9  -6  256.42   20.29
 -11  -9  -7   10.44    6.14
 -11  -9  -7    5.35    2.50
 -11  -9  -7    0.42    3.09
 -11  -9  -8   28.12   13.48
 -11  -9  -8   22.89    6.25
 -11  -9  -8   26.63    7.02
 -11  -9  -8   11.79    3.35
 -11  -9  -9   42.65   12.19
 -11  -9  -9   38.89    8.82
 -11  -9  -9   28.71    6.54
 -11  -9  -9   45.12    9.19
 -11  -9 -10   20.70    6.66
 -11  -9 -10   23.26    6.56
 -11  -9 -10   29.91    7.15
 -11  -9 -11  402.81   28.25
 -11  -9 -11  499.48   32.73
 -11  -9 -11  403.87   30.24
 -11  -9 -11  442.22   24.85
 -11  -9 -12   29.80    6.81
 -11  -9 -12   28.07    6.96
 -11  -9 -12   31.28    5.17
 -11  -9 -13   40.62    6.94
 -11  -9 -13   43.43    7.32
 -11  -9 -13   43.83    5.33
 -11  -9 -14    4.60    1.96
 -11  -9 -14    5.90    1.94
  11  10  -4    6.94    3.76
  11  10  -4    2.60    1.64
  11  10  -3   46.77    7.41
 -11 -10   3   46.93    8.77
  11  10  -2   98.78   12.46
 -11 -10   2  107.24   15.57
  11  10  -1   57.09   10.81
 -11 -10   1   49.31   11.42
  11  10   0  221.59   24.40
 -11 -10   0  189.84   23.35
 -11 -10   0  175.78   23.63
 -11 -10  -1  374.30   33.61
 -11 -10  -1  353.91   36.69
  11  10   2    1.42    5.27
 -11 -10  -2    7.40    7.97
 -11 -10  -2    8.21    7.06
  11  10   3   83.27   22.00
 -11 -10  -3   75.67   18.32
 -11 -10  -3   75.11   14.25
 -11 -10  -4   -1.40    8.57
 -11 -10  -4    0.66    3.86
 -11 -10  -5    7.51    3.29
 -11 -10  -5    5.66    1.91
 -11 -10  -6   91.73   14.03
 -11 -10  -6   96.53   12.10
 -11 -10  -7   84.89   19.06
 -11 -10  -7   59.37    9.00
 -11 -10  -8  367.16   36.33
 -11 -10  -8  317.58   23.16
 -11 -10  -9  157.46   21.65
 -11 -10  -9  154.45   18.36
 -11 -10  -9  135.42   14.32
 -11 -10 -10    4.80    4.65
 -11 -10 -10   -3.66    6.25
 -11 -10 -11   28.70    6.86
 -11 -10 -11   31.07    8.16
 -11 -10 -12   23.42    5.59
 -11 -10 -12   32.88    7.38
 -11 -10 -13    6.47    2.04
 -11 -10 -13    5.64    2.12
  11  11  -3  138.43   11.78
  11  11  -3  117.46   10.60
  11  11  -2    9.22    3.90
 -11 -11   2    8.50    4.19
  11  11  -1   69.03   10.75
 -11 -11   1   61.56   10.81
  11  11   0  459.17   32.48
 -11 -11   0  454.17   34.27
  11  11   1  835.30   51.11
 -11 -11  -1  739.64   45.83
 -11 -11  -1  721.12   52.60
  11  11   2   40.52   11.26
 -11 -11  -2   23.72    7.33
 -11 -11  -2   24.87    9.78
  11  11   3   -1.74   17.53
 -11 -11  -3  -13.28   14.96
 -11 -11  -3    1.96    3.35
 -11 -11  -4   33.13   13.80
 -11 -11  -4   26.89    8.39
 -11 -11  -4   37.68    7.68
 -11 -11  -5   54.32   19.94
 -11 -11  -5   38.76    8.90
 -11 -11  -5   45.55    8.05
 -11 -11  -6  266.26   23.75
 -11 -11  -6  234.19   18.69
 -11 -11  -7  181.16   28.21
 -11 -11  -7  156.48   17.87
 -11 -11  -7  142.90   14.14
 -11 -11  -8  663.82   50.23
 -11 -11  -8  592.53   38.31
 -11 -11  -8  599.70   31.80
 -11 -11  -9  186.76   16.02
 -11 -11 -10    9.82    4.59
 -11 -11 -11    2.63    1.87
 -11 -11 -11    1.42    2.19
 -11 -11 -12   55.26    7.38
 -11 -11 -12   57.87    7.16
  11  12  -2   18.93    3.94
  11  12  -1    1.05    1.97
 -11 -12   1   -3.21    3.98
  11  12   0  118.48   13.81
 -11 -12   0   97.78   13.39
  11  12   1  382.90   29.23
 -11 -12  -1  322.09   26.04
  11  12   2   21.55    8.79
 -11 -12  -2    7.68    4.10
  11  12   3   57.98   14.55
 -11 -12  -3   32.64    8.86
 -11 -12  -3   46.42    8.50
  11  12   4    1.76   11.49
 -11 -12  -4    1.17    4.39
 -11 -12  -4    2.20    1.36
 -11 -12  -5   12.11    5.23
 -11 -12  -5    9.04    4.20
 -11 -12  -6  153.24   17.21
 -11 -12  -6  142.89   13.60
 -11 -12  -7   36.74    8.57
 -11 -12  -7   31.95    6.03
 -11 -12  -8  199.20   20.21
 -11 -12  -8  219.04   17.79
 -11 -12  -9   52.11    8.61
 -11 -12  -9   48.00    9.07
 -11 -12 -10    7.89    2.80
 -11 -12 -11   -0.21    1.16
  11  13   0    2.91    2.27
  11  13   1   44.51    8.03
 -11 -13  -1   24.47    6.13
  11  13   2    1.13    3.31
 -11 -13  -2    0.48    1.83
 -11 -13  -2   -0.32    1.48
  11  13   3  283.76   26.94
 -11 -13  -3  200.64   19.47
  11  13   4  155.98   23.36
 -11 -13  -4  114.82   14.91
 -11 -13  -5   64.84   11.88
 -11 -13  -6  105.96   14.46
 -11 -13  -7   12.90    6.14
 -11 -13  -8   -0.26    0.89
 -11 -13  -8    2.02    2.27
 -11 -13  -9   -0.60    0.83
 -11 -13  -9    9.56    4.10
  11  14   3  315.72   21.74
 -11 -14  -3  279.22   17.39
 -11 -14  -4  318.35   18.55
 -11 -14  -5  150.25   12.53
 -11 -14  -6   88.41    9.02
  12  -2   1   29.45   14.18
  12  -2   1   10.22    4.13
  12  -2   2   31.13   20.31
 -12   2  -2   28.34    9.07
  12  -2   2   54.01   11.48
  12  -2   3  135.35   56.93
 -12   2  -3   68.24   12.41
  12  -2   3   90.15   15.00
 -12   2  -4   27.22    9.22
  12  -2   4   32.62   10.40
 -12   2  -5   12.30    7.02
  12  -2   5   36.19   12.80
  12  -2   6   78.99   58.16
  12  -2   6   53.14   17.20
  12  -2   7   10.19   25.38
 -12   2  -7   12.28    6.83
  12  -2   8  122.68   31.11
 -12   2  -8  151.42   15.19
  12  -2   9  -10.33   10.73
  12  -1  -1    3.02    1.35
  12  -1   0  193.54   18.78
  12  -1   0  111.16   19.79
 -12   1  -1   90.60   12.02
  12  -1   1  115.70   15.64
  12  -1   1   74.44   18.81
  12  -1   2  226.37   24.64
  12  -1   2  126.12   38.70
 -12   1  -3   44.79   10.99
  12  -1   3   40.53   10.67
 -12   1  -4  147.50   22.94
  12  -1   4  189.76   24.22
 -12   1  -5   13.59    7.25
  12  -1   5   22.48    6.35
  12  -1   6  118.26   50.45
 -12   1  -7   58.95   13.02
  12  -1   7   53.62   25.79
  12  -1   8  408.97   63.85
 -12   1  -8  541.16   35.20
  12  -1   9   51.31   18.53
 -12   1  -9   46.16    8.71
  12  -1  10   24.44    9.30
 -12   1 -11    1.47    1.63
  12   0  -2   25.65    8.04
  12   0  -1    9.72    5.58
  12   0  -1    2.26    2.17
 -12   0   0  267.70   19.94
  12   0   0  260.10   23.27
 -12   0  -1  133.39   15.64
  12   0   1  127.16   17.00
  12   0   1  114.56   29.66
  12   0   2  102.79   36.50
 -12   0  -3   56.16   13.50
  12   0   3   46.03   12.42
  12   0   3   39.25   19.76
 -12   0  -4  101.49   20.05
  12   0   4  169.23   23.62
 -12   0  -5    3.48    4.27
  12   0   5  -14.03   12.22
  12   0   6   64.60   38.66
 -12   0  -7   57.31   16.09
  12   0   7   61.44   27.95
  12   0   8  510.17   65.12
 -12   0  -8  618.78   41.31
  12   0   9   88.07   25.05
 -12   0  -9   98.13   13.92
  12   0  10   98.10   23.12
 -12   0 -10   77.96   11.06
 -12   0 -11    8.33    3.14
 -12   0 -12  128.13    9.48
  12   1  -3    7.80    2.46
  12   1  -3   13.08    4.54
  12   1  -2   32.69    5.00
  12   1  -2   18.72    6.28
  12   1  -1   -4.16    6.58
  12   1   0   67.83   17.94
 -12  -1   0   47.16    9.06
  12   1   0   52.26   10.87
  12   1   1   -1.62    9.52
 -12  -1  -1    1.18    2.72
  12   1   1   10.99    6.78
  12   1   2   10.68    8.07
 -12  -1  -2   15.86    7.77
  12   1   2   33.21   10.51
 -12  -1  -3   83.84   16.91
  12   1   3   84.79   16.53
 -12  -1  -4    2.32    6.85
  12   1   4   12.04    9.18
  12   1   5  295.36   61.85
 -12  -1  -5  190.82   28.71
  12   1   6   -3.19   14.52
  12   1   7   56.26   23.96
 -12  -1  -7   10.85    9.59
  12   1   8  116.78   29.28
 -12  -1  -8  102.54   17.96
  12   1   9   -1.68    6.66
 -12  -1  -9    6.89    4.83
 -12  -1 -10   67.22   10.21
  12   1  10   36.43   13.05
 -12  -1 -10   59.08    9.83
 -12  -1 -11  120.03   14.04
  12   1  11   78.41   17.26
 -12  -1 -12    7.35    3.19
 -12  -1 -13   96.75    8.86
 -12  -1 -13   86.68    8.11
  12   2  -3  203.31   13.79
  12   2  -3  202.13   18.50
  12   2  -2  229.27   16.77
  12   2  -2  150.83   17.55
  12   2  -1   59.12   10.59
  12   2  -1   52.61   14.45
  12   2   0    7.45    4.66
 -12  -2   0   17.79    5.98
  12   2   0   12.39    6.08
  12   2   0   10.20    6.62
  12   2   1  175.19   21.09
 -12  -2  -1  145.38   18.74
  12   2   1  158.25   20.85
  12   2   1  175.25   28.29
 -12  -2  -2   16.93    8.37
  12   2   2   21.59    9.15
  12   2   2   22.34   11.70
 -12  -2  -3  193.16   27.34
  12   2   3  279.96   49.44
 -12  -2  -4  105.39   20.06
  12   2   5  459.07   69.49
 -12  -2  -5  344.71   38.63
  12   2   6  120.67   35.09
 -12  -2  -7  100.95   19.27
  12   2   7  132.56   33.47
 -12  -2  -8    4.32    4.71
  12   2   8   14.69    8.48
 -12  -2  -9  114.45   17.08
  12   2   9  118.97   25.85
 -12  -2 -10   87.41   13.24
 -12  -2 -10   81.49   12.00
  12   2  10   87.40   20.39
  12   2  11  330.76   34.46
 -12  -2 -11  347.56   25.26
 -12  -2 -11  322.80   22.26
 -12  -2 -12  101.71   12.12
 -12  -2 -13  268.17   16.87
 -12  -2 -13  262.86   15.63
  12   3  -4   11.14    2.91
  12   3  -4   13.43    4.22
  12   3  -3  166.29   13.84
  12   3  -3  157.49   16.66
  12   3  -2  255.60   20.54
  12   3  -2  185.50   20.38
  12   3  -1   75.20   12.21
  12   3  -1   48.74   12.14
  12   3   0    9.35    5.44
 -12  -3   0   16.25    6.07
  12   3   0   15.31   10.46
  12   3   1  220.34   24.83
  12   3   1  196.77   29.43
 -12  -3  -1  222.71   24.74
  12   3   1  282.93   29.92
 -12  -3  -2   13.97    6.81
  12   3   2    1.70    8.81
 -12  -3  -3  168.55   25.82
  12   3   3  189.91   38.95
 -12  -3  -4   83.06   18.32
 -12  -3  -4   63.32    9.04
  12   3   5  427.76   64.24
 -12  -3  -5  286.88   35.60
  12   3   6  156.72   39.89
 -12  -3  -7   72.47   16.57
  12   3   7  137.41   30.94
 -12  -3  -8    8.30    3.15
 -12  -3  -8   15.33    7.46
 -12  -3  -9  157.02   15.12
 -12  -3  -9  189.82   22.86
  12   3   9  196.19   30.12
 -12  -3 -10   32.06    6.42
 -12  -3 -10   54.00   11.35
  12   3  10   39.18   12.54
 -12  -3 -11  232.60   16.80
  12   3  11  244.09   27.16
 -12  -3 -12  128.96   10.91
 -12  -3 -13  235.74   13.78
 -12  -3 -13  267.71   17.78
 -12  -3 -13  264.31   15.85
 -12  -3 -14    9.30    2.36
 -12  -3 -14   12.19    3.03
 -12  -3 -14   10.50    2.72
  12   4  -4    6.15    2.46
  12   4  -4    2.06    1.95
  12   4  -4    3.79    4.28
  12   4  -4    5.03    3.37
  12   4  -3   22.02    6.17
  12   4  -3   19.29    6.37
  12   4  -2   18.47    6.12
  12   4  -2   14.96    5.33
  12   4  -1   30.65    7.38
  12   4  -1   32.49   10.40
  12   4  -1   44.81   10.83
 -12  -4   1   40.42    6.99
  12   4   0   75.22   16.13
 -12  -4  -1    7.10    3.35
  12   4   1   -9.72    9.76
 -12  -4  -2  107.33   19.86
  12   4   2   39.04   16.55
 -12  -4  -3   80.50   18.34
 -12  -4  -4   33.42   12.76
 -12  -4  -5   52.91   18.21
 -12  -4  -5   64.05   10.05
 -12  -4  -6   23.34    5.04
 -12  -4  -7   16.36    8.20
  12   4   8  290.43   39.18
 -12  -4  -8  239.77   28.22
 -12  -4  -9    2.36    1.64
 -12  -4  -9   -0.79    4.06
  12   4   9    3.84    7.85
  12   4  10   45.06   12.19
 -12  -4 -10   44.20    8.01
 -12  -4 -11   62.33    9.37
  12   4  11   61.22   13.21
 -12  -4 -11   48.61    8.20
 -12  -4 -12    2.57    2.38
 -12  -4 -12    9.09    3.34
 -12  -4 -13  122.02   10.78
 -12  -4 -13  133.71   12.57
 -12  -4 -13  135.77   10.72
 -12  -4 -14    7.29    2.22
 -12  -4 -14    9.09    2.88
 -12  -4 -14    9.20    1.98
  12   5  -4   83.51    8.45
  12   5  -4   81.26    9.61
  12   5  -4   76.34    9.97
  12   5  -4   80.17    8.97
  12   5  -3  157.53   13.81
  12   5  -3  145.78   15.11
  12   5  -3  147.77   14.11
  12   5  -2   59.97   11.14
  12   5  -2   64.54   10.96
  12   5  -1    4.59    5.91
  12   5  -1    0.70    4.82
 -12  -5   1    4.74    4.53
  12   5   0  351.48   34.77
  12   5   0  277.48   28.73
 -12  -5   0  350.74   26.66
 -12  -5  -1  238.39   24.67
 -12  -5  -2  245.48   30.83
 -12  -5  -3   48.27   14.76
 -12  -5  -4  250.57   34.57
 -12  -5  -5   11.43    9.48
 -12  -5  -5    4.30    3.94
 -12  -5  -6   78.06   10.93
 -12  -5  -7   44.44   14.37
 -12  -5  -7   47.19    8.44
 -12  -5  -8  690.94   50.36
 -12  -5  -8  583.97   31.59
 -12  -5 -10  144.52   17.19
  12   5  10  176.37   24.46
 -12  -5 -10  147.11   16.48
  12   5  11   11.66    6.68
 -12  -5 -11    5.55    3.68
 -12  -5 -11    3.09    3.43
 -12  -5 -12  210.42   17.66
 -12  -5 -12  290.82   17.57
 -12  -5 -13   69.12    8.85
 -12  -5 -13   88.53    8.48
 -12  -5 -14   49.74    6.23
 -12  -5 -14    0.68    0.51
  12   6  -4  115.05   10.30
  12   6  -4  111.30   11.70
  12   6  -4   90.23   10.08
  12   6  -3  184.41   15.56
  12   6  -3  178.00   17.45
  12   6  -3  199.62   15.59
  12   6  -2   98.98   13.06
  12   6  -2   93.73   13.59
  12   6  -2   97.90   12.71
  12   6  -1   13.08    5.77
  12   6  -1    3.82    2.86
 -12  -6   1    8.61    4.05
  12   6   0  428.18   35.20
 -12  -6   0  336.45   26.98
  12   6   1  148.34   23.13
 -12  -6  -1  155.53   20.27
 -12  -6  -2  236.77   27.79
 -12  -6  -3   55.23   15.75
 -12  -6  -4  384.24   29.16
 -12  -6  -5   12.06    4.98
 -12  -6  -6   82.66   12.10
 -12  -6  -7   50.05   14.21
 -12  -6  -7   37.61    8.26
 -12  -6  -8  762.15   50.25
 -12  -6  -8  583.40   33.85
 -12  -6  -9  131.53   19.25
 -12  -6  -9  122.44   14.25
 -12  -6 -10  115.73   15.69
 -12  -6 -10  164.40   15.97
  12   6  11    8.76    6.31
 -12  -6 -11    3.14    2.06
 -12  -6 -11    2.08    1.41
 -12  -6 -11    9.06    4.42
 -12  -6 -11    0.56    1.70
 -12  -6 -12  260.84   13.72
 -12  -6 -12  256.91   19.19
 -12  -6 -13   68.40    9.10
 -12  -6 -13   63.53    8.47
 -12  -6 -14   41.32    6.10
 -12  -6 -14   33.12    5.04
  12   7  -4    7.61    3.27
  12   7  -3   19.61    5.36
  12   7  -3   21.78    6.44
  12   7  -3   25.85    5.62
  12   7  -2   46.52    8.08
  12   7  -1   52.18   10.64
 -12  -7   0   82.44   13.39
 -12  -7  -1   -0.75    4.77
 -12  -7  -2   99.95   18.05
 -12  -7  -2   62.66    8.69
 -12  -7  -3   85.67   16.82
 -12  -7  -3   85.51   10.22
 -12  -7  -4   22.58    8.93
 -12  -7  -4   15.75    7.01
 -12  -7  -4   11.46    3.60
 -12  -7  -5   84.03   18.28
 -12  -7  -5   98.03   14.13
 -12  -7  -5   89.43   10.37
 -12  -7  -6   26.59    5.77
 -12  -7  -6   22.84    5.17
 -12  -7  -7   15.07    7.23
 -12  -7  -7   31.17    8.15
 -12  -7  -7   20.33    5.00
 -12  -7  -8  232.93   27.35
 -12  -7  -8  196.15   18.20
 -12  -7  -9    9.44    6.51
 -12  -7  -9   14.21    4.98
 -12  -7 -10   66.24   12.37
 -12  -7 -10   77.69   11.28
 -12  -7 -11   57.93    7.92
 -12  -7 -11   99.51   12.57
 -12  -7 -11  103.41   13.15
 -12  -7 -11   92.44   11.66
 -12  -7 -11   86.77   11.31
 -12  -7 -12    9.77    3.10
 -12  -7 -12    5.86    2.92
 -12  -7 -12   13.26    4.09
 -12  -7 -13  106.94    8.91
 -12  -7 -13  117.93   12.21
 -12  -7 -13  140.89   11.89
 -12  -7 -14    0.66    1.03
 -12  -7 -14    2.48    1.54
  12   8  -3  204.39   15.22
  12   8  -2  202.99   18.16
  12   8  -1   96.35   14.69
 -12  -8   0   20.67    6.66
  12   8   0   11.03    6.49
 -12  -8  -1  341.61   31.50
 -12  -8  -2   12.73    7.55
 -12  -8  -3  104.78   19.45
 -12  -8  -3  137.90   18.05
 -12  -8  -3  112.93   12.17
 -12  -8  -4   52.91   15.66
 -12  -8  -4   43.87    9.78
 -12  -8  -4   40.67    6.91
 -12  -8  -5  338.71   37.13
 -12  -8  -5  294.94   25.18
 -12  -8  -5  250.87   18.44
 -12  -8  -6   50.40    9.93
 -12  -8  -6   49.06    7.72
 -12  -8  -7  117.16   20.59
 -12  -8  -7   95.50   13.34
 -12  -8  -7   96.34   11.27
 -12  -8  -8    8.09    6.36
 -12  -8  -8    4.01    3.31
 -12  -8  -8    1.10    1.78
 -12  -8  -9  285.16   27.94
 -12  -8  -9  260.42   21.58
 -12  -8 -10   38.01    8.74
 -12  -8 -10   41.27    7.53
 -12  -8 -10   35.30    7.18
 -12  -8 -11  254.43   21.09
 -12  -8 -11  309.38   23.49
 -12  -8 -11  261.90   21.11
 -12  -8 -11  294.21   20.61
 -12  -8 -12  111.13   10.48
 -12  -8 -12  138.71   14.09
 -12  -8 -12  144.44   12.64
 -12  -8 -13  217.38   13.72
 -12  -8 -13  221.19   16.50
 -12  -8 -13  249.85   14.55
  12   9  -3  165.74   12.99
  12   9  -3  150.63   13.78
  12   9  -2  174.62   15.79
  12   9  -1   29.21    8.74
  12   9   0    3.43    2.75
 -12  -9   0   21.60    6.22
 -12  -9  -1  242.52   26.52
 -12  -9  -1  266.17   26.67
 -12  -9  -2   64.74   14.42
 -12  -9  -2   37.39    9.71
 -12  -9  -3  150.91   24.58
 -12  -9  -3  169.72   15.33
 -12  -9  -4   94.40   20.74
 -12  -9  -4  101.49   11.64
 -12  -9  -5  606.33   52.55
 -12  -9  -5  658.63   39.06
 -12  -9  -5  563.89   30.22
 -12  -9  -6   87.59   12.52
 -12  -9  -6   86.07   10.51
 -12  -9  -7  111.64   21.51
 -12  -9  -7   84.30   12.43
 -12  -9  -7   83.39   10.37
 -12  -9  -8   23.23    9.24
 -12  -9  -8   11.77    3.97
 -12  -9  -8   19.81    4.97
 -12  -9  -8    6.69    3.94
 -12  -9  -9  174.79   21.40
 -12  -9  -9  164.53   17.59
 -12  -9  -9  145.52   14.70
 -12  -9 -10   84.45   14.10
 -12  -9 -10   78.97   11.32
 -12  -9 -10   72.64    9.41
 -12  -9 -11  316.21   21.91
 -12  -9 -11  369.95   18.65
 -12  -9 -12   69.93    8.38
 -12  -9 -12   73.03    9.57
 -12  -9 -12   56.44    6.38
 -12  -9 -13  235.86   14.28
 -12  -9 -13  235.67   15.79
  12  10  -2    6.09    3.71
 -12 -10   2    9.12    4.61
  12  10  -1   15.28    4.46
 -12 -10   1   18.18    6.28
  12  10   0   54.61   10.47
 -12 -10   0   47.00   10.12
 -12 -10   0   45.56   10.48
  12  10   1    7.28    4.31
 -12 -10  -1   13.52    4.61
 -12 -10  -1    6.55    4.12
 -12 -10  -2    4.62    7.23
 -12 -10  -2   18.77    7.39
 -12 -10  -3   38.73   13.61
 -12 -10  -3   37.32    9.72
 -12 -10  -3   43.83    7.95
 -12 -10  -4   14.76    5.46
 -12 -10  -4   17.71    5.27
 -12 -10  -5  167.48   27.74
 -12 -10  -5  136.10   13.44
 -12 -10  -6    5.68    3.52
 -12 -10  -7   23.01   11.13
 -12 -10  -7   20.71    7.20
 -12 -10  -7   14.25    4.10
 -12 -10  -8   82.98   16.89
 -12 -10  -8   72.74   11.00
 -12 -10  -8   61.69    8.85
 -12 -10  -9    8.06    3.47
 -12 -10  -9    7.80    4.40
 -12 -10 -10   41.90    8.62
 -12 -10 -10   51.27   11.20
 -12 -10 -11   44.40    7.50
 -12 -10 -11   42.53    7.50
 -12 -10 -12   21.45    4.45
 -12 -10 -12   19.26    4.14
 -12 -10 -12   16.06    4.52
  12  11  -1   32.41    6.01
 -12 -11   1   29.93    7.20
  12  11   0  277.90   21.21
 -12 -11   0  210.80   20.11
  12  11   1   89.25   13.89
 -12 -11  -1   71.71   12.04
 -12 -11  -2  186.96   25.91
 -12 -11  -2  166.00   19.33
 -12 -11  -3   44.24   13.56
 -12 -11  -3   19.45    8.00
 -12 -11  -3   24.74    6.28
 -12 -11  -4  166.42   25.33
 -12 -11  -4  169.84   18.38
 -12 -11  -4  187.44   15.59
 -12 -11  -5    8.51    5.23
 -12 -11  -5   17.14    5.45
 -12 -11  -5   13.09    4.64
 -12 -11  -6   48.48    9.96
 -12 -11  -6   46.34    7.54
 -12 -11  -7   32.71    9.44
 -12 -11  -7   39.68    6.66
 -12 -11  -8  563.02   43.69
 -12 -11  -8  409.27   23.92
 -12 -11  -9   74.22   11.66
 -12 -11 -10   82.44   10.27
 -12 -11 -10  103.52   13.24
 -12 -11 -11    9.35    3.72
 -12 -11 -11    9.16    3.56
  12  12   0  150.35   12.79
  12  12   1   49.76    8.93
 -12 -12  -1   52.91    9.03
 -12 -12  -1   51.79    7.30
 -12 -12  -2  169.91   17.64
 -12 -12  -2  191.43   15.17
 -12 -12  -3   26.27    7.15
 -12 -12  -3   25.64    4.97
 -12 -12  -4  172.50   17.36
 -12 -12  -4  180.49   14.87
 -12 -12  -5   48.60    9.31
 -12 -12  -5   37.20    6.47
 -12 -12  -6   53.12   10.52
 -12 -12  -6   42.03    6.82
 -12 -12  -7   36.64    8.00
 -12 -12  -7   33.49    5.97
 -12 -12  -8  440.28   28.49
 -12 -12  -8  395.55   22.01
 -12 -12  -9   36.25    6.14
 -12 -12 -10   41.38    5.95
 -12 -13  -3   21.00    4.61
 -12 -13  -4   53.00    9.01
 -12 -13  -4   46.67    6.57
 -12 -13  -5   18.47    6.09
 -12 -13  -5   19.23    4.25
 -12 -13  -6    9.91    5.88
 -12 -13  -6   16.24    4.19
 -12 -13  -7    4.94    3.98
 -12 -13  -7    6.59    2.86
  13   0   2  131.69   27.68
 -13   0  -3    6.37    3.66
  13   0   3    7.00   24.79
 -13   0  -4  260.17   24.68
  13   0   4  374.88   83.22
 -13   0  -5   61.98   13.33
  13   0   6  378.63   88.26
 -13   0  -7   11.52    4.70
  13   0   7  -18.42   28.64
 -13   0  -8  183.59   17.78
  13   0   8  152.59   38.95
  13   0   9    8.59    7.44
  13   1   1    2.51    7.11
 -13  -1  -2   35.03    7.76
  13   1   2   42.14   22.96
 -13  -1  -3   21.27    6.33
  13   1   3    5.46   12.09
 -13  -1  -4  172.76   22.08
 -13  -1  -5   -1.82    5.64
  13   1   6  289.28   64.24
 -13  -1  -7   -4.70    4.43
  13   1   7   11.74   19.94
 -13  -1  -8   24.02    7.09
  13   1   8   21.36   13.40
 -13  -1  -9   10.83    4.14
  13   1   9    8.05    8.45
  13   1  10   -3.45    7.30
  13   2   0   -3.32    5.68
  13   2   1  252.41   31.76
 -13  -2  -1  256.17   19.98
 -13  -2  -2   22.51    6.68
  13   2   2   27.11   13.25
 -13  -2  -3   30.34    8.41
  13   2   3   65.41   22.45
 -13  -2  -4    8.30    4.45
 -13  -2  -5  114.00   19.49
  13   2   5  170.26   40.05
  13   2   6   75.76   27.26
 -13  -2  -7    4.20    4.13
  13   2   7   32.33   22.23
 -13  -2  -8   92.68   15.01
  13   2   8   93.52   21.00
 -13  -2  -9  249.39   22.52
  13   2   9  213.57   33.06
 -13  -2 -10   -3.17    3.27
  13   2  10    9.75    6.82
  13   2  11   -6.12    7.26
  13   3  -1    7.21    2.03
  13   3  -1    5.34    3.38
  13   3   0   12.93    3.22
  13   3   0    6.77    5.06
  13   3   0   17.87    9.57
  13   3   1  557.47   47.46
  13   3   1  770.95   40.22
 -13  -3  -2  104.66   14.59
  13   3   2  145.66   26.63
 -13  -3  -3   65.64   12.68
  13   3   3  121.46   30.00
 -13  -3  -4    7.53    8.55
 -13  -3  -5  241.56   28.80
  13   3   5  365.23   58.80
  13   3   6   -5.58   14.66
 -13  -3  -7   69.84   14.72
  13   3   7   83.39   26.71
 -13  -3  -8  296.28   28.15
  13   3   8  252.74   39.29
  13   3   9  534.80   51.82
 -13  -3  -9  500.27   35.05
  13   3  10   12.94    5.92
  13   3  11    3.96    4.65
 -13  -3 -12   82.23    8.46
 -13  -3 -12   89.31    8.15
  13   4  -1   19.11    4.94
  13   4  -1   22.19    5.43
  13   4   0    3.37    3.05
  13   4   0    7.41    4.58
  13   4   0    1.43    3.01
  13   4   1  346.02   34.26
 -13  -4  -1  357.49   23.79
  13   4   2   40.84   11.38
  13   4   2   30.41   10.57
 -13  -4  -3   98.14   17.75
 -13  -4  -3   97.47   11.29
  13   4   3  137.72   29.34
 -13  -4  -4   19.30    8.30
 -13  -4  -4    7.16    2.31
 -13  -4  -5   54.33   13.78
  13   4   5  115.09   30.40
  13   4   6   85.79   26.95
 -13  -4  -7   34.46   12.01
  13   4   7   63.03   22.54
 -13  -4  -8   73.83   10.08
 -13  -4  -8   87.66   15.67
  13   4   8  117.85   24.17
 -13  -4  -9  199.77   15.34
  13   4   9  290.96   35.88
  13   4  10   -1.85    9.43
 -13  -4 -10    9.28    2.84
 -13  -4 -10    6.99    4.44
 -13  -4 -11    4.12    3.11
 -13  -4 -11    9.92    2.84
 -13  -4 -12    2.88    1.20
 -13  -4 -12    7.46    2.46
 -13  -4 -12    3.87    1.54
  13   5  -2  228.10   16.12
  13   5  -1   93.45   11.74
  13   5  -1   95.65   10.97
  13   5   0   10.65    4.59
  13   5   0    3.04    3.83
  13   5   0    1.97    3.30
 -13  -5   0    8.71    3.76
  13   5   1   31.14    9.10
  13   5   1   15.89    5.55
  13   5   1   42.02   16.32
 -13  -5  -1   23.26    6.46
  13   5   2   86.94   21.12
 -13  -5  -2   55.93   10.98
 -13  -5  -3   28.39    6.62
  13   5   3   38.16   21.40
 -13  -5  -3   27.15    8.05
 -13  -5  -4  244.96   18.92
 -13  -5  -5   18.87   11.45
 -13  -5  -5   44.69    9.17
  13   5   6  379.05   63.50
 -13  -5  -6  262.00   18.12
  13   5   7   24.47   17.21
  13   5   8   50.07   17.98
 -13  -5  -8   34.79    9.00
 -13  -5  -9    2.28    3.57
 -13  -5  -9    5.79    4.54
  13   5  10   14.83    5.61
 -13  -5 -10   10.86    4.27
 -13  -5 -10   13.79    5.71
 -13  -5 -11  105.18   11.11
 -13  -5 -11   87.87    9.75
 -13  -5 -11   87.92    8.52
 -13  -5 -12   81.50    7.84
 -13  -5 -12    0.71    1.47
 -13  -5 -13    5.22    2.51
 -13  -5 -13    0.79    0.33
  13   6  -2  526.63   27.66
  13   6  -1  176.04   17.06
  13   6   0    3.55    5.13
  13   6   0    1.19    4.36
 -13  -6   0    2.16    2.18
  13   6   1   10.14    8.32
 -13  -6  -1    2.81    4.30
  13   6   2  232.78   31.92
 -13  -6  -2  186.27   20.42
 -13  -6  -3   33.75   10.14
 -13  -6  -3   18.99    8.14
 -13  -6  -4  587.24   34.06
 -13  -6  -4  526.82   40.53
 -13  -6  -5  321.49   23.97
 -13  -6  -5  252.61   29.05
 -13  -6  -6  544.72   30.07
 -13  -6  -7   20.51    9.98
 -13  -6  -8   53.59    7.91
 -13  -6  -8  138.36   18.66
  13   6   9    4.77    8.05
 -13  -6  -9   12.49    6.74
  13   6  10    9.98    4.94
 -13  -6 -10    8.56    4.34
 -13  -6 -10    4.35    3.32
 -13  -6 -11  243.40   18.20
  13   6  11  270.81   25.11
 -13  -6 -12  224.81   15.68
 -13  -6 -12  315.69   18.72
 -13  -6 -13   14.75    4.14
 -13  -6 -13   24.44    4.92
  13   7  -2  185.76   14.84
  13   7  -1   55.05    9.20
  13   7   0   -4.78    5.32
 -13  -7  -1   69.93   12.25
 -13  -7  -2   71.24   12.74
 -13  -7  -2   55.72   11.32
 -13  -7  -3   33.07    7.55
 -13  -7  -3   25.21    9.36
 -13  -7  -4  196.41   19.07
 -13  -7  -4  190.00   23.99
 -13  -7  -5   31.24    9.30
 -13  -7  -5   16.05   10.27
 -13  -7  -6  248.10   20.18
 -13  -7  -7   22.48    7.84
 -13  -7  -7   -9.35    8.82
 -13  -7  -8   17.54    5.54
 -13  -7  -8    5.96    4.14
 -13  -7  -9   23.62    5.83
 -13  -7  -9   14.26    5.05
  13   7  10   15.12    8.98
 -13  -7 -10   11.35    2.46
 -13  -7 -10   12.72    4.30
  13   7  11   98.87   14.04
 -13  -7 -11  111.38   11.56
 -13  -7 -12   55.06    7.37
 -13  -7 -12   79.00    9.01
  13   8  -1    8.03    3.23
  13   8   0    5.53    4.77
 -13  -8  -1  464.90   30.36
 -13  -8  -2   83.54   15.09
 -13  -8  -2  156.70   19.18
 -13  -8  -3  152.43   20.72
 -13  -8  -3  183.58   19.81
 -13  -8  -4   17.50    6.56
 -13  -8  -4   15.39    4.76
 -13  -8  -5  126.21   20.52
 -13  -8  -5  138.06   15.67
 -13  -8  -5  140.44   12.66
 -13  -8  -6   79.75   12.44
 -13  -8  -6   75.42    9.43
 -13  -8  -7   77.03   16.50
 -13  -8  -7   66.15    9.78
 -13  -8  -8  190.01   23.49
 -13  -8  -8  180.75   16.35
 -13  -8  -9  375.55   29.81
 -13  -8  -9  310.76   21.49
 -13  -8 -10   50.40   10.33
 -13  -8 -10   43.72    8.54
 -13  -8 -10   29.28    9.10
  13   8  11   18.31    6.78
 -13  -8 -11    6.93    1.98
 -13  -8 -11   12.31    3.60
 -13  -8 -11   15.01    4.31
 -13  -8 -12   11.90    2.57
 -13  -8 -12   13.76    3.99
 -13  -8 -12   22.85    3.92
 -13  -9   1   15.50    6.05
 -13  -9   0   30.52    6.77
 -13  -9  -1  580.88   34.97
 -13  -9  -1  608.32   36.72
 -13  -9  -1  651.89   31.05
 -13  -9  -2  184.04   23.74
 -13  -9  -2  253.75   18.05
 -13  -9  -3  134.78   20.99
 -13  -9  -3  189.89   15.44
 -13  -9  -4   15.00    4.70
 -13  -9  -4   20.09    4.79
 -13  -9  -5  230.18   29.08
 -13  -9  -5  255.02   21.40
 -13  -9  -5  243.90   17.03
 -13  -9  -6   43.86    9.37
 -13  -9  -6   61.29    8.30
 -13  -9  -7   86.10   17.12
 -13  -9  -7   70.97   10.05
 -13  -9  -7   63.63    8.08
 -13  -9  -8  425.92   35.01
 -13  -9  -8  334.22   23.26
 -13  -9  -9  555.28   35.28
 -13  -9  -9  448.98   24.88
 -13  -9 -10   -3.55    3.91
 -13  -9 -10    0.50    0.61
  13   9  11   -2.79    2.09
 -13  -9 -11    2.03    1.39
 -13  -9 -11    4.30    2.39
 -13  -9 -11   -0.53    0.42
 -13 -10   0   27.38    6.33
 -13 -10   0   27.05    4.64
 -13 -10  -1  227.81   20.24
 -13 -10  -1  228.75   16.64
 -13 -10  -2   42.04   10.40
 -13 -10  -2   41.25    7.06
 -13 -10  -3   66.15   14.23
 -13 -10  -3   65.18   10.59
 -13 -10  -3   65.25    8.60
 -13 -10  -4   36.15   11.00
 -13 -10  -4   33.31    5.99
 -13 -10  -5   63.76   16.16
 -13 -10  -5   70.62    9.14
 -13 -10  -6   91.45   12.03
 -13 -10  -6   98.07   10.34
 -13 -10  -7    8.97    9.43
 -13 -10  -7    1.32    2.08
 -13 -10  -7    8.78    3.37
 -13 -10  -8   64.39    9.96
 -13 -10  -8   87.51   15.83
 -13 -10  -9  133.26   13.72
 -13 -10  -9  189.88   20.60
 -13 -10 -10   18.88    7.67
 -13 -10 -11    7.09    1.87
 -13 -11  -2   63.42   10.03
 -13 -11  -2   59.08    7.81
 -13 -11  -3   56.63   11.89
 -13 -11  -3   46.19    9.10
 -13 -11  -3   56.79    7.84
 -13 -11  -4  227.61   25.76
 -13 -11  -4  285.28   21.60
 -13 -11  -4  264.75   17.59
 -13 -11  -5  117.49   24.01
 -13 -11  -5  127.29   14.86
 -13 -11  -5  140.42   12.38
 -13 -11  -6  322.63   19.41
 -13 -11  -7    6.08   12.59
 -13 -11  -7   42.31    6.92
 -13 -11  -8   40.51   10.14
 -13 -11  -8   32.90    7.21
 -13 -11  -9   19.69    6.56
 -13 -12  -4  238.89   18.64
 -13 -12  -4  219.56   14.91
 -13 -12  -5  195.28   17.26
 -13 -12  -5  206.03   14.59
 -13 -12  -6  315.16   21.76
 -13 -12  -6  297.38   17.94
  14   3   3  249.93   39.28
  14   3   4   25.52   25.49
 -14  -3  -5   44.12   10.94
 -14  -3  -6   -3.55    5.75
  14   3   6  -60.30   39.26
  14   3   7   -2.99   19.66
  14   3   8  442.08   56.61
 -14  -3  -8  322.54   23.49
  14   4   2   43.95   12.12
 -14  -4  -3  170.96   15.22
  14   4   3  231.70   36.33
  14   4   4    7.21   15.95
 -14  -4  -4    7.13    3.59
 -14  -4  -5   13.79    3.41
  14   4   6   40.95   14.29
 -14  -4  -6    1.74    4.80
  14   4   7  -18.69   14.80
  14   4   8  448.02   54.57
 -14  -4  -8  344.00   25.20
  14   4   9  216.56   32.33
 -14  -4  -9  262.98   19.95
  14   5   2   14.90    6.02
  14   5   2   12.54    6.62
  14   5   3   98.81   14.50
  14   5   3   99.63   24.14
 -14  -5  -3   51.82    8.01
  14   5   4   26.52   21.40
 -14  -5  -4    1.71    3.42
 -14  -5  -5    9.65    4.52
  14   5   6   85.40   36.47
 -14  -5  -6   50.91   10.55
  14   5   7  -20.97   18.57
 -14  -5  -8   48.30    6.47
 -14  -5  -8   89.17   12.50
  14   5   8   87.25   28.17
 -14  -5  -9    2.76    1.34
  14   5   9   13.59   10.56
 -14  -5  -9   12.67    4.55
 -14  -5 -10    5.50    2.10
  14   5  10    7.36    6.84
  14   6   2  167.54   23.97
  14   6   2  173.57   18.60
 -14  -6  -3   10.67    2.10
  14   6   3   23.71   12.16
 -14  -6  -3   20.67    7.00
 -14  -6  -4   39.97    6.94
 -14  -6  -4   34.71    6.38
 -14  -6  -5  259.35   24.39
 -14  -6  -6  291.67   25.60
  14   6   7  -19.37   16.02
 -14  -6  -8   -0.29    1.48
  14   6   8   17.74   19.63
 -14  -6  -8    4.32    2.42
 -14  -6  -9   58.66    7.48
 -14  -6  -9   81.44   11.11
 -14  -6 -10   -0.21    1.20
  14   6  10   -7.67    7.40
 -14  -7  -2  106.52   12.73
  14   7   2   68.04   14.07
 -14  -7  -3   33.20    7.09
  14   7   3   28.55   12.63
 -14  -7  -3   25.89    7.22
 -14  -7  -4   27.55    5.95
  14   7   4   52.64   25.99
 -14  -7  -4   27.47    6.75
 -14  -7  -5  197.72   15.66
 -14  -7  -5  209.12   22.27
 -14  -7  -6  221.59   15.98
 -14  -7  -6  238.62   24.52
  14   7   7    3.10   17.95
  14   7   8    8.14   14.85
 -14  -7  -8   20.28    7.81
  14   7   9   20.89   11.67
 -14  -7  -9   39.73    9.12
 -14  -7  -9   25.52    5.11
  14   7  10    3.59    4.33
 -14  -7 -10    2.14    2.44
 -14  -7 -10   -2.05    2.44
  14   8   2   -0.65    4.80
 -14  -8  -2   -4.18    1.94
 -14  -8  -3   85.64   12.77
  14   8   3  115.72   22.65
 -14  -8  -3   89.85   11.48
 -14  -8  -4    1.77    2.40
 -14  -8  -4    3.96    1.97
 -14  -8  -5    0.65    3.43
 -14  -8  -5    6.89    2.69
 -14  -8  -6   41.58   10.90
 -14  -8  -6   26.53    5.17
 -14  -8  -7    3.04    1.48
 -14  -8  -8  109.03   15.52
 -14  -8  -8   -2.15    2.49
  14   8   9   41.38   11.92
 -14  -8  -9   35.48    7.22
 -14  -8  -9   26.84    5.42
  14   8  10   -1.95    4.33
 -14  -8 -10    3.96    2.15
 -14  -8 -10   -1.68    1.47
 -14  -9  -3  170.86   15.41
 -14  -9  -4   26.50    5.55
 -14  -9  -4   19.72    6.74
 -14  -9  -5   49.47    8.20
 -14  -9  -5   30.24   10.15
 -14  -9  -6    4.19    2.02
 -14  -9  -6    0.67    4.13
 -14  -9  -7    2.27    2.12
 -14  -9  -8  358.80   28.17
 -14  -9  -9  206.22   14.99
 -14 -10  -5   55.18   10.99
 -14 -10  -5   39.43    6.93
 -14 -10  -6   14.39    7.78
   0   0   0    0.00    0.00


TITL NH4Th-Th6 in P-1
REM P-1 (#2 in standard setting)
CELL 1.54184  12.254875  13.134206  15.000101  81.8146  70.0277  66.1289
ZERR    1.00   0.000413   0.000462   0.000537   0.0029   0.0032   0.0033
LATT  1
SFAC N O S Th
UNIT 14.00 100.00 12.00 7.00
TREF
HKLF 4
END
_computing_structure_solution     'SHELXT 2018/2 (Sheldrick, 2018)'
;
_shelx_hkl_checksum                95741
_shelx_fab_file
;
-13 -9 1 -7.8188 0.9641
-13 -8 1 5.4092 -0.5773
-13 -7 1 -2.0767 -0.5828
-13 -7 2 1.5016 0.5745
-13 -6 1 1.7335 0.4645
-13 -6 2 -0.5204 0.3864
-13 -5 1 2.1845 2.3413
-13 -5 2 1.8996 2.5748
-13 -4 1 -1.5946 -1.0960
-13 -3 1 1.1424 1.4102
-12 -11 1 -1.5109 2.3580
-12 -10 1 4.7545 -1.2184
-12 -10 2 2.4024 -0.0376
-12 -9 1 -4.9019 1.2712
-12 -9 2 -3.3712 0.4865
-12 -9 3 -1.4481 -1.0329
-12 -8 1 -3.3093 1.2197
-12 -8 2 -2.2298 0.1832
-12 -8 3 -0.7782 -0.4097
-12 -7 1 1.6605 -0.7915
-12 -7 2 3.5697 -0.4891
-12 -7 3 4.0954 -0.5468
-12 -7 4 1.6523 -0.4538
-12 -6 1 -2.6063 -0.0547
-12 -6 2 1.2234 -0.3581
-12 -6 3 2.1730 -0.0954
-12 -6 4 2.3502 0.1811
-12 -5 1 6.8120 0.9309
-12 -5 2 1.4226 1.0159
-12 -5 3 -1.8446 0.6734
-12 -5 4 -3.5237 -0.0877
-12 -4 1 -5.1059 0.4371
-12 -4 2 1.3984 0.8107
-12 -4 3 3.8640 0.1756
-12 -4 4 3.5379 -0.4526
-12 -3 1 8.0592 0.2196
-12 -3 2 0.2111 -0.2278
-12 -3 3 -2.3562 -0.1052
-12 -3 4 -2.1097 0.2210
-12 -2 1 -4.9918 0.7801
-12 -2 2 3.8203 -0.1948
-12 -2 3 3.8718 -0.9642
-12 -1 1 8.7959 0.9081
-12 -1 2 -2.0354 1.3969
-12 -1 3 -2.9259 0.9741
-12 0 1 -7.3549 -0.5150
-12 0 2 3.2365 -2.6724
-12 1 1 5.4700 -1.0055
-11 -12 1 7.3683 -0.7555
-11 -12 2 3.9264 -0.5769
-11 -11 1 -5.8965 0.4567
-11 -11 2 -3.0263 -0.4712
-11 -11 3 -0.6182 -2.3221
-11 -10 1 1.3315 0.4228
-11 -10 2 1.9161 0.8215
-11 -10 3 2.2657 1.2739
-11 -10 4 3.2092 0.3455
-11 -9 1 1.3165 0.0399
-11 -9 2 3.1311 -0.0705
-11 -9 3 2.7348 -0.0901
-11 -9 4 -0.0868 1.0468
-11 -9 5 0.9580 2.1697
-11 -8 1 -1.0927 0.7145
-11 -8 2 -4.4480 0.4763
-11 -8 3 -4.8976 0.1895
-11 -8 4 -1.7711 -1.3043
-11 -8 5 -2.2223 -2.9037
-11 -7 1 -2.9112 0.5472
-11 -7 2 1.3039 0.4925
-11 -7 3 3.2232 -0.4757
-11 -7 4 1.0416 -0.3118
-11 -7 5 2.1417 1.3009
-11 -7 6 1.0381 2.1919
-11 -6 1 -3.5354 0.6786
-11 -6 2 -3.0193 0.0623
-11 -6 3 -0.2177 0.1334
-11 -6 4 4.7542 -0.1161
-11 -6 5 2.5284 -1.3089
-11 -6 6 0.0504 -2.2724
-11 -5 1 3.5512 0.1246
-11 -5 2 5.2998 0.2676
-11 -5 3 4.6421 -0.2354
-11 -5 4 -1.0389 -0.8507
-11 -5 5 -1.1316 -0.8626
-11 -5 6 0.1153 -0.6727
-11 -4 1 0.5083 0.3967
-11 -4 2 1.8233 0.4734
-11 -4 3 -0.5903 0.4167
-11 -4 4 1.0863 -0.0543
-11 -4 5 -1.0115 -1.0734
-11 -4 6 -3.9743 -2.0180
-11 -3 1 0.3017 0.7639
-11 -3 2 -2.9003 0.3844
-11 -3 3 1.4480 -0.2604
-11 -3 4 0.0678 -0.2646
-11 -3 5 -0.9918 0.7240
-11 -3 6 0.5403 2.3231
-11 -2 1 2.8605 -0.1415
-11 -2 2 8.3664 -0.0810
-11 -2 3 1.3056 -0.0980
-11 -2 4 0.0691 -0.8144
-11 -2 5 1.6108 -1.6513
-11 -1 1 3.4598 1.3603
-11 -1 2 -4.3076 0.9283
-11 -1 3 2.4743 -0.1344
-11 -1 4 3.0212 -0.0899
-11 -1 5 -1.9324 0.6657
-11 0 1 -2.1625 0.2793
-11 0 2 7.6557 -0.5891
-11 0 3 0.3151 -0.3297
-11 0 4 -2.9112 -0.4061
-11 1 1 3.5664 1.3378
-11 1 2 -6.5682 0.3663
-11 1 3 -0.6690 -1.3956
-11 1 4 2.0256 -1.3731
-11 2 1 -7.1206 -1.6644
-11 2 2 3.4013 -1.6606
-11 2 3 -1.0061 -0.4872
-11 3 1 7.1245 1.4696
-10 -13 1 -7.2489 3.6244
-10 -13 2 -1.4118 3.0863
-10 -12 1 4.7520 -1.1913
-10 -12 2 1.3433 -1.1533
-10 -12 3 2.9270 0.8394
-10 -12 4 4.3553 1.1298
-10 -11 1 2.3331 -0.0393
-10 -11 2 3.9638 0.2384
-10 -11 3 1.2750 -0.4260
-10 -11 4 -1.7790 -0.5534
-10 -11 5 0.0209 -1.4931
-10 -10 1 -1.8240 0.3445
-10 -10 2 -3.2559 0.3059
-10 -10 3 -2.0681 0.0836
-10 -10 4 0.4755 -0.4176
-10 -10 5 -0.9340 0.9357
-10 -10 6 0.0685 3.8747
-10 -9 1 -3.6569 0.2078
-10 -9 2 -0.1140 -0.0871
-10 -9 3 2.8193 -0.3635
-10 -9 4 2.9689 0.1646
-10 -9 5 4.9774 -0.1211
-10 -9 6 3.4154 -1.5920
-10 -8 1 3.9985 -0.1443
-10 -8 2 2.8500 -0.1087
-10 -8 3 0.8974 0.3042
-10 -8 4 1.2912 -0.1600
-10 -8 5 -0.9201 -0.3801
-10 -8 6 -0.6539 0.5916
-10 -8 7 -0.5462 0.8446
-10 -7 1 0.1068 0.0631
-10 -7 2 -0.3602 0.6583
-10 -7 3 -0.2247 -0.0000
-10 -7 4 -2.0727 -0.2456
-10 -7 5 -0.7208 -0.1461
-10 -7 6 -1.2049 -0.1935
-10 -7 7 -0.7833 0.6902
-10 -6 1 -1.0056 0.3627
-10 -6 2 -1.5000 -0.1055
-10 -6 3 -2.0276 0.3342
-10 -6 4 0.3947 0.3077
-10 -6 5 0.2661 0.0832
-10 -6 6 1.8607 0.2176
-10 -6 7 1.2260 -0.2644
-10 -5 1 -4.6434 0.7953
-10 -5 2 -3.3364 1.0263
-10 -5 3 1.5468 0.2187
-10 -5 4 3.6107 -0.2840
-10 -5 5 5.3332 -0.5702
-10 -5 6 1.3654 -1.1411
-10 -5 7 -1.8773 -1.5880
-10 -5 8 -1.5908 -1.6003
-10 -4 1 6.4578 0.3953
-10 -4 2 7.5092 0.7853
-10 -4 3 3.1812 0.5575
-10 -4 4 0.5783 -0.5234
-10 -4 5 -3.4025 -1.6387
-10 -4 6 -2.0440 -2.2058
-10 -4 7 0.6362 -2.0148
-10 -4 8 -0.1340 -1.4005
-10 -3 1 -2.8525 0.4092
-10 -3 2 -4.0840 -0.1855
-10 -3 3 -0.5748 0.0266
-10 -3 4 -0.9366 0.1612
-10 -3 5 0.6490 -0.4258
-10 -3 6 -1.3371 -0.8744
-10 -3 7 -5.7570 -0.9483
-10 -2 1 0.9769 0.3600
-10 -2 2 3.4499 0.7884
-10 -2 3 0.0979 -0.2663
-10 -2 4 1.5491 -0.9314
-10 -2 5 -0.8539 -0.1813
-10 -2 6 -2.8799 0.7742
-10 -2 7 0.9778 1.8080
-10 -1 1 4.8598 0.6310
-10 -1 2 1.6939 0.1153
-10 -1 3 5.0625 0.1637
-10 -1 4 1.1178 -0.2744
-10 -1 5 1.0112 -0.8887
-10 -1 6 4.6425 -0.1088
-10 -1 7 0.6914 0.6864
-10 0 1 -0.8534 0.0577
-10 0 2 3.7712 0.4523
-10 0 3 -1.5298 0.0900
-10 0 4 2.5808 -0.0957
-10 0 5 4.1828 -0.2381
-10 0 6 -2.6306 -1.1130
-10 1 1 0.8302 1.6554
-10 1 2 -5.0176 0.4256
-10 1 3 1.9372 -0.4742
-10 1 4 -2.3476 -0.8261
-10 1 5 -7.6235 0.2378
-10 1 6 -1.7461 2.7510
-10 2 1 -1.5260 0.0903
-10 2 2 5.9594 -0.3553
-10 2 3 -0.9893 -1.3512
-10 2 4 1.8831 -1.5099
-10 2 5 7.7343 -1.4732
-10 3 1 -2.8979 -0.0256
-10 3 2 -8.3383 0.2184
-10 3 3 -1.7233 1.6710
-10 3 4 -2.1977 1.4036
-10 4 1 -1.1917 0.6304
-10 4 2 5.1019 0.7157
-10 4 3 2.1377 -2.1600
-10 5 1 4.5367 2.9528
-9 -14 1 1.1446 0.1439
-9 -14 2 -1.5239 1.0388
-9 -13 1 -0.2927 0.6580
-9 -13 2 1.2971 1.1731
-9 -13 3 -0.0815 2.3890
-9 -12 1 0.7192 0.9557
-9 -12 2 -1.0968 0.6052
-9 -12 3 -0.4760 -0.8559
-9 -12 4 -1.8853 -2.3648
-9 -12 5 -2.7892 -0.7099
-9 -11 1 0.6247 -0.6043
-9 -11 2 3.3473 -0.6289
-9 -11 3 3.7185 -0.0112
-9 -11 4 5.4446 1.3008
-9 -11 5 5.7758 0.6012
-9 -11 6 0.8042 -0.9392
-9 -10 1 6.1445 -0.0652
-9 -10 2 2.4860 0.3351
-9 -10 3 -0.6865 0.6909
-9 -10 4 -4.0716 -0.2636
-9 -10 5 -5.4057 -0.5733
-9 -10 6 -0.2827 0.2102
-9 -10 7 2.9921 0.7925
-9 -9 1 -3.0624 0.0418
-9 -9 2 -1.7119 0.1711
-9 -9 3 -0.4673 -0.4844
-9 -9 4 0.6375 -0.1683
-9 -9 5 1.8638 0.2316
-9 -9 6 -1.6239 0.2404
-9 -9 7 -3.1905 0.4897
-9 -8 1 1.6916 -0.0112
-9 -8 2 -0.0063 -0.4524
-9 -8 3 -1.4117 -0.0334
-9 -8 4 0.3082 -0.2858
-9 -8 5 2.0402 -0.2337
-9 -8 6 6.7781 0.4139
-9 -8 7 8.3863 0.6244
-9 -8 8 6.9239 1.3287
-9 -7 1 -2.9714 -0.0996
-9 -7 2 -0.3964 0.1805
-9 -7 3 2.9133 -0.4162
-9 -7 4 2.1632 -0.1868
-9 -7 5 1.5101 -0.2436
-9 -7 6 -1.9365 -0.6171
-9 -7 7 -3.6778 0.2975
-9 -7 8 -3.5906 1.9059
-9 -6 1 11.3961 -0.5470
-9 -6 2 7.3875 -0.3959
-9 -6 3 0.9448 0.3603
-9 -6 4 -0.3249 -0.2033
-9 -6 5 -1.0455 -0.4712
-9 -6 6 0.7858 0.3161
-9 -6 7 1.4793 0.8030
-9 -6 8 1.1466 0.6016
-9 -6 9 -0.6371 -0.2713
-9 -5 1 -4.5101 0.0964
-9 -5 2 -5.0780 0.3451
-9 -5 3 -2.6884 0.0540
-9 -5 4 -2.7507 0.6463
-9 -5 5 -0.2864 0.9102
-9 -5 6 0.5734 0.3052
-9 -5 7 0.5100 -0.4459
-9 -5 8 -0.8530 -1.1749
-9 -5 9 -1.3868 -1.4648
-9 -4 1 1.9835 0.1605
-9 -4 2 1.6411 0.6799
-9 -4 3 0.4292 0.8867
-9 -4 4 2.2837 0.3646
-9 -4 5 0.7540 -0.2029
-9 -4 6 -0.3230 -0.7663
-9 -4 7 -0.8784 -1.3499
-9 -4 8 -0.2336 -1.7004
-9 -4 9 0.7535 -2.1610
-9 -3 1 3.6276 0.3827
-9 -3 2 1.2659 0.5609
-9 -3 3 0.5550 0.7255
-9 -3 4 -0.7674 -0.0396
-9 -3 5 2.0095 -1.3592
-9 -3 6 2.3150 -2.0946
-9 -3 7 -0.4230 -2.3612
-9 -3 8 -3.5086 -2.0968
-9 -3 9 -5.3038 -0.7349
-9 -2 1 -1.3060 -0.1770
-9 -2 2 1.7139 0.2902
-9 -2 3 1.5479 -0.1753
-9 -2 4 1.1335 -0.0576
-9 -2 5 -3.8953 -0.0739
-9 -2 6 -6.2795 -0.7769
-9 -2 7 -4.1031 -0.4204
-9 -2 8 -1.8172 0.8175
-9 -2 9 0.8198 1.6181
-9 -1 1 2.9378 0.5225
-9 -1 2 -2.5370 0.1003
-9 -1 3 -2.1949 0.4470
-9 -1 4 -2.0843 -0.1353
-9 -1 5 2.2825 -0.2211
-9 -1 6 4.8244 0.9175
-9 -1 7 2.0889 1.2071
-9 -1 8 0.9447 1.3382
-9 -1 9 -0.5454 1.4497
-9 0 1 0.5411 0.1814
-9 0 2 7.5506 0.8822
-9 0 3 4.2807 0.1527
-9 0 4 3.5601 -0.2605
-9 0 5 0.5603 -0.9824
-9 0 6 -2.1911 -1.2504
-9 0 7 0.4379 0.9273
-9 0 8 -0.3003 2.4049
-9 1 1 0.7394 0.2683
-9 1 2 -6.7375 -0.0460
-9 1 3 -0.9437 -0.0411
-9 1 4 0.5210 -0.5972
-9 1 5 2.6081 -0.0667
-9 1 6 5.3005 0.4950
-9 1 7 0.5016 -0.8324
-9 1 8 -0.4472 -0.1590
-9 2 1 3.4853 0.3739
-9 2 2 8.2296 -0.2537
-9 2 3 -1.4454 -0.9170
-9 2 4 -3.6021 -0.5103
-9 2 5 -3.7226 -0.8759
-9 2 6 -6.0370 -0.2473
-9 2 7 -0.6028 2.8097
-9 3 1 -7.0429 -0.2026
-9 3 2 -13.0522 0.5343
-9 3 3 -1.6234 0.7646
-9 3 4 2.8555 -0.3235
-9 3 5 2.9535 0.3877
-9 3 6 5.3782 0.6997
-9 4 1 0.0251 0.8311
-9 4 2 10.1578 0.5471
-9 4 3 0.8112 0.1300
-9 4 4 -3.9614 0.9737
-9 4 5 -2.4107 -0.8308
-9 5 1 -0.2815 -0.4531
-9 5 2 -12.4819 0.3895
-9 5 3 -5.1382 0.8249
-9 5 4 1.3002 -1.7370
-9 6 1 -0.1894 2.3529
-9 6 2 9.9037 1.5083
-8 -14 1 -2.1639 -1.7492
-8 -14 2 -1.6469 -2.1930
-8 -14 3 -1.8782 -1.3177
-8 -13 1 1.8846 1.1924
-8 -13 2 3.4870 1.6686
-8 -13 3 2.7623 1.1662
-8 -13 4 0.1716 0.0807
-8 -13 5 -0.5078 -0.2299
-8 -12 1 4.1467 -0.2401
-8 -12 2 -1.3134 0.6561
-8 -12 3 -3.2575 1.7593
-8 -12 4 -1.4923 1.4386
-8 -12 5 0.2447 -0.5812
-8 -12 6 -0.0076 -3.0573
-8 -11 1 -0.0297 0.4479
-8 -11 2 4.9497 0.0175
-8 -11 3 4.1771 -1.1879
-8 -11 4 0.6798 -1.0298
-8 -11 5 -2.6535 0.7582
-8 -11 6 -2.7873 2.9867
-8 -11 7 0.5313 3.1048
-8 -10 1 5.4664 -0.6116
-8 -10 2 1.9491 -0.8009
-8 -10 3 1.8758 0.0322
-8 -10 4 2.1408 0.3533
-8 -10 5 4.3234 -0.0255
-8 -10 6 5.8367 -0.8534
-8 -10 7 1.9314 -0.8054
-8 -10 8 -0.3356 0.7933
-8 -9 1 1.0424 0.0146
-8 -9 2 3.3621 0.3813
-8 -9 3 0.5907 0.1511
-8 -9 4 -0.7346 -0.0726
-8 -9 5 -3.7177 -0.5327
-8 -9 6 -7.9048 -0.4695
-8 -9 7 -5.2827 0.3080
-8 -9 8 -1.7328 0.8588
-8 -9 9 0.6707 1.5221
-8 -8 1 6.1670 0.2902
-8 -8 2 2.3549 0.0555
-8 -8 3 1.2921 0.0248
-8 -8 4 -1.8325 -0.1872
-8 -8 5 -2.2700 0.3476
-8 -8 6 3.3080 0.8812
-8 -8 7 5.1774 0.6691
-8 -8 8 4.8895 0.3925
-8 -8 9 4.0295 0.2558
-8 -7 1 -1.3403 -0.2441
-8 -7 2 -1.3711 -0.3185
-8 -7 3 -6.0996 -0.5126
-8 -7 4 -6.6418 -0.1019
-8 -7 5 -2.0351 -0.3195
-8 -7 6 -0.2545 -0.5526
-8 -7 7 1.9728 -0.1005
-8 -7 8 3.1459 0.4983
-8 -7 9 2.5323 1.2154
-8 -7 10 -0.0425 2.2655
-8 -6 1 1.0135 -0.2194
-8 -6 2 1.1194 -0.4365
-8 -6 3 6.4111 -0.2467
-8 -6 4 11.0132 -0.7456
-8 -6 5 7.8994 -0.6420
-8 -6 6 5.0717 -0.3432
-8 -6 7 3.2179 -0.0010
-8 -6 8 1.9400 1.2345
-8 -6 9 0.5443 2.8026
-8 -6 10 0.6697 3.1744
-8 -5 1 13.8954 -0.4428
-8 -5 2 13.4156 -0.1166
-8 -5 3 6.0941 -0.1100
-8 -5 4 -4.2880 0.3646
-8 -5 5 -4.9432 0.2160
-8 -5 6 -2.5013 0.3352
-8 -5 7 -2.0824 1.0839
-8 -5 8 -2.9463 1.2533
-8 -5 9 -2.7253 0.5879
-8 -5 10 -3.1598 -0.4985
-8 -4 1 0.5962 0.0270
-8 -4 2 -4.1215 0.0459
-8 -4 3 -8.2670 0.3412
-8 -4 4 -4.6133 0.3026
-8 -4 5 -3.7530 0.5708
-8 -4 6 -2.8153 0.3942
-8 -4 7 0.8325 -0.4150
-8 -4 8 3.2757 -1.1566
-8 -4 9 1.6103 -1.9767
-8 -4 10 0.2140 -2.2848
-8 -3 1 -0.7150 -0.6654
-8 -3 2 -0.6365 -0.0858
-8 -3 3 3.6311 0.4786
-8 -3 4 1.9460 0.5781
-8 -3 5 2.2753 0.1666
-8 -3 6 2.7081 -0.2507
-8 -3 7 -0.1265 -1.0191
-8 -3 8 -3.0337 -2.0796
-8 -3 9 -2.7484 -2.2478
-8 -3 10 -1.9517 -2.0145
-8 -2 1 10.2920 -0.2649
-8 -2 2 10.1399 0.0323
-8 -2 3 0.9027 -0.1158
-8 -2 4 -1.5755 0.2873
-8 -2 5 -1.5755 0.1675
-8 -2 6 -1.0653 -0.7713
-8 -2 7 0.1760 -1.0475
-8 -2 8 0.0271 -0.5902
-8 -2 9 -1.7488 -0.2848
-8 -2 10 -2.5003 0.5117
-8 -1 1 -3.6172 -0.6353
-8 -1 2 -7.8856 -0.3752
-8 -1 3 -1.7908 0.7058
-8 -1 4 -0.3738 0.2436
-8 -1 5 -1.4531 -0.3258
-8 -1 6 -2.5053 -0.3884
-8 -1 7 -3.5173 -0.8320
-8 -1 8 -2.8907 -0.2857
-8 -1 9 -1.3331 1.5562
-8 -1 10 0.7037 2.9499
-8 0 1 5.6353 0.0768
-8 0 2 6.9827 0.7689
-8 0 3 -1.3281 0.2583
-8 0 4 -3.0597 0.4781
-8 0 5 -0.4483 0.0228
-8 0 6 2.3995 -0.4622
-8 0 7 4.8963 0.7280
-8 0 8 4.2187 1.5042
-8 0 9 2.0906 1.7652
-8 0 10 -1.5215 1.8548
-8 1 1 -5.2818 0.4079
-8 1 2 -3.1776 0.0754
-8 1 3 5.2803 0.1680
-8 1 4 4.9898 -0.4680
-8 1 5 1.9242 -0.1731
-8 1 6 0.8480 0.3209
-8 1 7 -1.0630 0.0978
-8 1 8 -0.8991 1.6740
-8 1 9 -0.5016 2.6239
-8 2 1 12.3500 -0.7864
-8 2 2 6.6970 -0.4718
-8 2 3 -6.1488 -0.4132
-8 2 4 -6.2774 -0.6219
-8 2 5 -1.6997 -1.6491
-8 2 6 0.1203 -1.1227
-8 2 7 2.7751 0.9569
-8 2 8 1.8527 0.4786
-8 2 9 0.7007 0.7637
-8 3 1 -6.2679 -0.0624
-8 3 2 -7.3279 -0.1119
-8 3 3 1.9314 -0.6375
-8 3 4 1.0871 -0.4822
-8 3 5 -1.4797 0.7973
-8 3 6 0.5616 0.0483
-8 3 7 -0.2682 -1.6387
-8 3 8 0.7984 0.4894
-8 4 1 3.5274 0.0148
-8 4 2 3.5535 -0.4015
-8 4 3 -6.1982 0.3756
-8 4 4 -4.4474 0.9042
-8 4 5 0.0759 0.0615
-8 4 6 -0.6937 1.2199
-8 4 7 1.0700 2.7730
-8 5 1 -4.9228 -1.9275
-8 5 2 -5.3086 0.7072
-8 5 3 3.7440 1.5684
-8 5 4 2.4863 0.3955
-8 5 5 -1.2603 -0.3283
-8 5 6 0.8645 -2.6983
-8 6 1 4.1110 2.6476
-8 6 2 1.2333 0.2544
-8 6 3 -8.9903 -1.3076
-8 6 4 -8.4398 -0.1909
-8 6 5 -2.9704 -0.0504
-8 7 1 -0.4775 -2.3834
-8 7 2 0.4214 0.7771
-8 7 3 6.5430 3.3170
-7 -15 1 0.7188 6.7895
-7 -14 1 1.2784 -2.2530
-7 -14 2 -4.1825 -2.5558
-7 -14 3 -1.5017 -0.0934
-7 -14 4 2.3673 1.6083
-7 -13 1 0.9797 -0.0087
-7 -13 2 9.5806 0.3080
-7 -13 3 5.4666 -0.3127
-7 -13 4 -2.8692 -0.1074
-7 -13 5 -4.4289 1.9690
-7 -12 1 1.5057 0.2693
-7 -12 2 -6.1894 0.1843
-7 -12 3 -5.5828 0.6144
-7 -12 4 -1.6057 0.5572
-7 -12 5 -1.6656 -0.7371
-7 -12 6 -0.9940 -1.9003
-7 -12 7 0.7976 -2.3120
-7 -11 1 5.0734 0.4680
-7 -11 2 11.1060 0.6473
-7 -11 3 10.6047 0.7850
-7 -11 4 7.1065 0.5631
-7 -11 5 4.0603 -0.1133
-7 -11 6 0.7791 -0.6868
-7 -11 7 -0.8332 -0.0975
-7 -11 8 -0.0562 1.8182
-7 -10 1 5.1753 -0.6403
-7 -10 2 1.4516 -0.3325
-7 -10 3 -3.9201 -0.6580
-7 -10 4 -8.5755 -0.9142
-7 -10 5 -6.3793 -0.1133
-7 -10 6 -0.2054 1.0437
-7 -10 7 2.7602 0.9306
-7 -10 8 2.9657 -0.7237
-7 -10 9 -0.0611 -2.1003
-7 -9 1 -0.3936 0.2239
-7 -9 2 2.9787 -0.3944
-7 -9 3 6.9055 -0.3063
-7 -9 4 10.4737 0.2388
-7 -9 5 5.2523 0.2493
-7 -9 6 -2.1518 -0.2290
-7 -9 7 -2.7640 -0.1761
-7 -9 8 -2.7036 1.0553
-7 -9 9 -1.6203 2.7934
-7 -8 1 4.6784 0.4007
-7 -8 2 6.7982 0.5178
-7 -8 3 3.4263 0.3850
-7 -8 4 -3.2419 -0.0996
-7 -8 5 -1.6408 -0.4170
-7 -8 6 2.5615 -0.1718
-7 -8 7 -0.1678 0.6582
-7 -8 8 -0.4879 1.2922
-7 -8 9 1.2555 0.9755
-7 -8 10 1.0367 -0.4894
-7 -7 1 7.3542 0.6641
-7 -7 2 4.1009 0.2423
-7 -7 3 -0.3856 -0.2041
-7 -7 4 -3.4803 -0.3892
-7 -7 5 -9.7972 -0.3919
-7 -7 6 -13.3732 -0.2147
-7 -7 7 -5.3967 -0.4123
-7 -7 8 1.5961 -0.7660
-7 -7 9 3.1658 -0.5741
-7 -7 10 4.0105 1.0178
-7 -7 11 4.2110 2.4519
-7 -6 1 -1.4504 -0.2983
-7 -6 2 -2.5637 -0.4472
-7 -6 3 -4.9427 -0.4847
-7 -6 4 -5.0718 -0.4908
-7 -6 5 0.8799 -0.1091
-7 -6 6 10.2697 -0.0258
-7 -6 7 10.6961 0.0439
-7 -6 8 6.9700 0.4052
-7 -6 9 4.9311 1.1278
-7 -6 10 2.3971 1.5877
-7 -6 11 -1.0449 2.1978
-7 -5 1 5.9675 -0.0814
-7 -5 2 11.2627 -0.4430
-7 -5 3 14.2323 -0.4498
-7 -5 4 12.0173 0.1461
-7 -5 5 7.7937 0.1147
-7 -5 6 -0.3596 0.1305
-7 -5 7 -2.4146 0.4116
-7 -5 8 1.7943 0.9444
-7 -5 9 3.2625 1.6450
-7 -5 10 1.1222 2.2650
-7 -5 11 0.3303 2.1460
-7 -4 1 10.3783 -0.1590
-7 -4 2 5.6895 0.0314
-7 -4 3 -1.4899 0.4545
-7 -4 4 -4.1306 -0.0221
-7 -4 5 -7.6678 -0.1984
-7 -4 6 -4.0023 -0.3006
-7 -4 7 0.1062 -0.1386
-7 -4 8 -2.9631 0.4073
-7 -4 9 -5.0460 0.6380
-7 -4 10 -2.2240 0.2711
-7 -4 11 -1.5014 -0.9569
-7 -3 1 4.9632 0.2005
-7 -3 2 8.0420 0.1456
-7 -3 3 6.5595 -0.3166
-7 -3 4 -1.4709 -0.0582
-7 -3 5 -0.9573 0.1301
-7 -3 6 -0.8388 0.2983
-7 -3 7 -1.7992 0.1723
-7 -3 8 3.1347 -0.4529
-7 -3 9 5.1486 -1.0994
-7 -3 10 -0.7061 -2.1374
-7 -3 11 -3.7803 -2.5175
-7 -2 1 -0.5058 -0.5300
-7 -2 2 -5.5324 -0.7761
-7 -2 3 -9.5224 -0.2781
-7 -2 4 -4.6196 0.2364
-7 -2 5 -4.8558 0.5360
-7 -2 6 -3.1050 0.5260
-7 -2 7 1.7088 0.2991
-7 -2 8 -0.9063 -0.5258
-7 -2 9 -5.0725 -1.9354
-7 -2 10 -2.7142 -1.9464
-7 -2 11 -0.0416 -0.9237
-7 -1 1 5.4054 -1.1997
-7 -1 2 10.6815 -0.9371
-7 -1 3 12.3847 -0.3549
-7 -1 4 4.5024 -0.0431
-7 -1 5 1.8774 0.5230
-7 -1 6 0.6613 0.5939
-7 -1 7 -3.3010 -0.3789
-7 -1 8 -1.9336 -0.7698
-7 -1 9 2.1951 0.1591
-7 -1 10 2.0284 0.6494
-7 -1 11 -0.4355 0.8621
-7 0 1 8.9461 -0.1429
-7 0 2 1.5211 -0.1631
-7 0 3 -7.2023 -0.2099
-7 0 4 -5.5174 0.6332
-7 0 5 -2.9198 0.3162
-7 0 6 -0.3753 -0.5825
-7 0 7 4.5004 -0.4282
-7 0 8 4.8363 -0.1487
-7 0 9 0.2973 0.6591
-7 0 10 -3.1135 2.8369
-7 0 11 -1.4338 4.3596
-7 1 1 -8.3516 -0.9570
-7 1 2 -5.5918 -0.5951
-7 1 3 0.8399 0.6311
-7 1 4 0.0471 0.3410
-7 1 5 -1.6828 0.1541
-7 1 6 -1.0347 0.1294
-7 1 7 -1.8179 -0.2369
-7 1 8 -1.7500 0.9189
-7 1 9 0.4170 1.8141
-7 1 10 2.8729 1.2249
-7 1 11 0.4938 0.9317
-7 2 1 5.2579 0.0359
-7 2 2 8.1636 0.6259
-7 2 3 2.3278 -0.0679
-7 2 4 -0.0077 -0.2384
-7 2 5 0.1388 -0.4766
-7 2 6 -0.2887 -0.3479
-7 2 7 1.6087 0.5184
-7 2 8 3.3962 0.1751
-7 2 9 2.8018 1.1896
-7 2 10 -0.7883 3.0671
-7 3 1 11.0956 0.2765
-7 3 2 3.1267 -0.7933
-7 3 3 0.7475 -0.9222
-7 3 4 -2.5587 -0.8082
-7 3 5 -3.2186 -0.7619
-7 3 6 0.8664 -0.9276
-7 3 7 3.3626 -0.6395
-7 3 8 3.7487 1.5461
-7 3 9 2.5153 1.1790
-7 3 10 3.2406 -0.7186
-7 4 1 -2.0404 -0.9838
-7 4 2 -2.3648 -0.7441
-7 4 3 -7.3698 -0.1790
-7 4 4 -6.3412 -0.2425
-7 4 5 -3.4957 0.0074
-7 4 6 -3.2266 0.7292
-7 4 7 -2.1126 0.3345
-7 4 8 -2.0279 -2.0802
-7 4 9 -1.2891 -0.9753
-7 5 1 2.3578 -0.8802
-7 5 2 0.7049 -0.0838
-7 5 3 6.0845 -0.2597
-7 5 4 5.1440 0.7413
-7 5 5 2.3873 1.2838
-7 5 6 2.5138 0.3000
-7 5 7 2.1855 0.0180
-7 5 8 3.4806 1.7432
-7 6 1 3.6053 -0.2972
-7 6 2 2.3644 -1.2495
-7 6 3 -8.7076 0.4523
-7 6 4 -11.4861 0.5299
-7 6 5 -8.1972 -0.6597
-7 6 6 -4.6948 -0.8683
-7 6 7 -0.4562 -1.2533
-7 7 1 -0.6565 0.0184
-7 7 2 -3.7333 2.2078
-7 7 3 3.1820 0.6444
-7 7 4 4.2302 -0.0351
-7 7 5 1.6428 1.2553
-7 8 1 4.0333 -1.8504
-7 8 2 6.2251 -3.4635
-7 8 3 0.0020 -0.4195
-7 8 4 -1.0980 2.2520
-7 9 1 1.1046 2.5128
-6 -15 1 5.8874 -0.7829
-6 -15 2 9.4745 3.4991
-6 -14 1 -3.9833 3.2302
-6 -14 2 -8.3002 0.0659
-6 -14 3 -0.0251 -0.2821
-6 -14 4 0.9219 -0.6942
-6 -13 1 5.9465 -0.2839
-6 -13 2 11.8290 0.9956
-6 -13 3 2.2785 0.2122
-6 -13 4 -0.3843 0.5046
-6 -13 5 -0.4669 1.7139
-6 -13 6 -4.8240 1.6888
-6 -12 1 -5.7297 0.5685
-6 -12 2 -8.4280 0.0910
-6 -12 3 0.4180 0.6789
-6 -12 4 1.5477 0.5424
-6 -12 5 -1.7803 0.0112
-6 -12 6 0.2506 0.2308
-6 -12 7 -0.8607 -1.0746
-6 -12 8 -4.4722 -3.3289
-6 -11 1 3.3082 0.0427
-6 -11 2 9.8053 -0.1436
-6 -11 3 2.0799 -0.4765
-6 -11 4 -4.1413 -0.1148
-6 -11 5 -5.0784 0.2166
-6 -11 6 -5.2590 -0.4569
-6 -11 7 -0.8051 -0.6257
-6 -11 8 3.8011 -0.1505
-6 -11 9 3.1999 -0.3492
-6 -10 1 9.8271 0.2375
-6 -10 2 7.2132 0.1758
-6 -10 3 12.4132 0.3242
-6 -10 4 17.1295 0.0021
-6 -10 5 16.3678 -0.6913
-6 -10 6 10.0447 -0.9312
-6 -10 7 0.7584 -0.8084
-6 -10 8 -1.6484 -0.1774
-6 -10 9 1.8085 0.7519
-6 -10 10 2.9206 1.3778
-6 -9 1 -7.9351 -0.0759
-6 -9 2 -3.4711 0.3924
-6 -9 3 -7.7342 0.2053
-6 -9 4 -17.3430 -0.1618
-6 -9 5 -23.7704 0.0200
-6 -9 6 -16.7169 0.4387
-6 -9 7 -1.5584 0.6714
-6 -9 8 2.6650 0.2828
-6 -9 9 -1.7454 -0.2903
-6 -9 10 -3.6425 -0.4164
-6 -8 1 10.8665 0.2172
-6 -8 2 13.4075 -0.3273
-6 -8 3 14.4962 -0.3920
-6 -8 4 18.9919 0.0505
-6 -8 5 25.5026 0.2246
-6 -8 6 19.7476 0.2324
-6 -8 7 3.7315 0.1920
-6 -8 8 -0.9685 0.3509
-6 -8 9 2.2927 1.0296
-6 -8 10 2.0203 2.1798
-6 -8 11 0.6439 4.6680
-6 -7 1 -12.2730 0.6426
-6 -7 2 -8.0199 0.8466
-6 -7 3 -4.0313 0.7130
-6 -7 4 -7.2910 0.0166
-6 -7 5 -19.0610 -0.6043
-6 -7 6 -21.5817 -1.0805
-6 -7 7 -8.8960 -0.9300
-6 -7 8 -2.1927 0.1709
-6 -7 9 -2.2016 0.9741
-6 -7 10 -0.0959 0.3637
-6 -7 11 -0.0338 -3.1585
-6 -6 1 21.7546 1.0886
-6 -6 2 22.1927 0.8341
-6 -6 3 13.4746 0.0882
-6 -6 4 3.8562 -0.5377
-6 -6 5 3.0992 -0.7957
-6 -6 6 4.1936 -0.3175
-6 -6 7 -2.7424 0.4535
-6 -6 8 -3.6134 0.3727
-6 -6 9 1.6542 -0.0446
-6 -6 10 2.6336 0.0058
-6 -6 11 3.1943 2.4853
-6 -6 12 5.4072 5.3504
-6 -5 1 -14.8200 0.6542
-6 -5 2 -15.5310 -0.3380
-6 -5 3 -15.0599 -0.7150
-6 -5 4 -11.3165 -0.3753
-6 -5 5 -6.7906 0.2778
-6 -5 6 -3.4823 0.7585
-6 -5 7 6.7892 0.4818
-6 -5 8 12.3168 0.0536
-6 -5 9 8.0673 -0.0449
-6 -5 10 5.3162 0.8008
-6 -5 11 3.7880 1.2523
-6 -5 12 -0.0605 0.8218
-6 -4 1 13.9852 -0.8577
-6 -4 2 17.4285 -0.4509
-6 -4 3 21.5757 -0.1975
-6 -4 4 20.3494 -0.1029
-6 -4 5 10.9583 0.1960
-6 -4 6 6.3450 -0.0471
-6 -4 7 0.3350 -0.2844
-6 -4 8 -3.0245 0.0095
-6 -4 9 2.1701 0.7237
-6 -4 10 3.2343 1.0437
-6 -4 11 -1.7755 0.8735
-6 -4 12 -3.2949 0.8248
-6 -3 1 -6.2141 0.6778
-6 -3 2 5.7020 0.0871
-6 -3 3 3.2506 0.2356
-6 -3 4 -5.1163 0.5895
-6 -3 5 -3.8055 -0.0597
-6 -3 6 -5.8429 -0.4301
-6 -3 7 -4.6148 -0.2468
-6 -3 8 0.7193 0.0569
-6 -3 9 -1.3215 0.4065
-6 -3 10 -2.0221 0.3460
-6 -3 11 2.8436 -0.1332
-6 -3 12 2.6404 -1.5286
-6 -2 1 25.4982 0.2153
-6 -2 2 9.6868 0.4529
-6 -2 3 2.0096 0.0210
-6 -2 4 2.0820 -0.6084
-6 -2 5 -4.9997 -0.2415
-6 -2 6 -2.9350 0.1659
-6 -2 7 1.7545 0.3364
-6 -2 8 -0.2410 0.3911
-6 -2 9 0.7225 -0.1795
-6 -2 10 -0.8725 -0.6933
-6 -2 11 -8.0458 -1.4415
-6 -2 12 -7.8761 -1.7075
-6 -1 1 -35.6994 0.2235
-6 -1 2 -16.0003 -0.3549
-6 -1 3 -7.0727 -0.6198
-6 -1 4 -10.4952 -0.5895
-6 -1 5 -6.3289 -0.2975
-6 -1 6 -5.8697 0.4050
-6 -1 7 -6.4110 0.7425
-6 -1 8 -0.5622 0.3040
-6 -1 9 0.7866 -0.3933
-6 -1 10 0.4584 -1.6205
-6 -1 11 3.7513 -1.6389
-6 -1 12 2.9014 -0.2406
-6 0 1 37.7459 0.2415
-6 0 2 28.9001 -0.8966
-6 0 3 18.4816 -1.1510
-6 0 4 16.7987 -0.0635
-6 0 5 10.5531 0.6888
-6 0 6 7.7564 0.7392
-6 0 7 8.1236 0.6373
-6 0 8 4.0219 0.0443
-6 0 9 1.7475 -0.5891
-6 0 10 0.7311 0.1900
-6 0 11 -1.4874 0.8695
-6 0 12 -1.1802 0.8207
-6 1 1 -16.2717 -1.2831
-6 1 2 -16.7481 -1.0685
-6 1 3 -14.2338 -0.4463
-6 1 4 -18.5080 -0.4565
-6 1 5 -16.8268 0.4295
-6 1 6 -10.9792 0.9430
-6 1 7 -6.0978 -0.0136
-6 1 8 -0.5764 -0.1360
-6 1 9 2.5626 0.9549
-6 1 10 3.1732 2.1914
-6 1 11 1.3281 4.1685
-6 2 1 1.2588 -0.3282
-6 2 2 7.0734 -0.2295
-6 2 3 5.6916 -0.0527
-6 2 4 10.4423 0.8282
-6 2 5 12.2381 0.0442
-6 2 6 7.6343 -1.0501
-6 2 7 3.6446 -0.4451
-6 2 8 1.1656 -0.2283
-6 2 9 -1.9070 0.2083
-6 2 10 -5.3361 0.8218
-6 2 11 -3.7495 -0.3740
-6 3 1 7.2168 0.1717
-6 3 2 4.3554 -0.2782
-6 3 3 5.8998 -0.1694
-6 3 4 -2.8991 -0.6997
-6 3 5 -11.2241 -0.4438
-6 3 6 -8.3678 0.0883
-6 3 7 -1.2808 -0.3802
-6 3 8 4.1599 0.4663
-6 3 9 8.7412 0.7253
-6 3 10 11.8222 0.7060
-6 3 11 6.9621 2.8080
-6 4 1 7.0592 0.2133
-6 4 2 4.8834 0.4646
-6 4 3 -8.0025 -0.1082
-6 4 4 -8.5055 -0.3541
-6 4 5 -1.4024 -0.1156
-6 4 6 1.2845 0.0534
-6 4 7 1.1620 0.6441
-6 4 8 0.3597 -0.2157
-6 4 9 -2.6155 0.3112
-6 4 10 -7.0109 1.1017
-6 5 1 2.4958 0.1331
-6 5 2 2.2087 -0.8437
-6 5 3 11.9292 -0.7714
-6 5 4 9.5746 -0.0121
-6 5 5 1.1881 -0.3700
-6 5 6 -2.0322 -0.4890
-6 5 7 -0.9845 -0.5231
-6 5 8 1.6023 0.3207
-6 5 9 3.6346 -1.0221
-6 6 1 7.0382 -0.5536
-6 6 2 2.6813 -0.6595
-6 6 3 -11.2476 -0.4816
-6 6 4 -11.4596 -0.6512
-6 6 5 -5.1134 0.9649
-6 6 6 -1.2581 1.3320
-6 6 7 0.2478 0.0445
-6 6 8 -0.1395 -1.8496
-6 6 9 0.4445 -0.6090
-6 7 1 -2.7528 0.0725
-6 7 2 -0.2895 0.3757
-6 7 3 7.2367 0.2441
-6 7 4 0.9045 0.9154
-6 7 5 -5.8416 -0.4686
-6 7 6 -5.3237 -0.6478
-6 7 7 -1.4379 0.9771
-6 8 1 11.0768 -1.0630
-6 8 2 6.0277 -1.9741
-6 8 3 -3.2360 -0.9545
-6 8 4 1.2550 -0.3095
-6 8 5 5.4272 2.0154
-6 8 6 4.1250 2.5011
-6 9 1 -6.4250 0.6471
-6 9 2 -1.9690 2.1096
-6 9 3 4.5681 1.4964
-6 9 4 -0.3012 1.3256
-6 10 1 7.0280 -0.8621
-5 -15 1 2.3175 1.4144
-5 -15 2 -1.1979 -0.2493
-5 -14 1 3.8465 -1.5083
-5 -14 2 5.9659 0.9976
-5 -14 3 3.3547 3.6458
-5 -14 4 -6.0133 -0.5638
-5 -14 5 -2.4309 -4.4470
-5 -13 1 -4.5105 2.1107
-5 -13 2 -2.1948 1.1009
-5 -13 3 0.4779 -1.1184
-5 -13 4 9.4278 1.4960
-5 -13 5 6.7128 3.5648
-5 -13 6 2.2907 1.6260
-5 -13 7 4.6949 0.1012
-5 -12 1 3.3912 -0.0632
-5 -12 2 0.5365 0.3646
-5 -12 3 1.7820 1.6694
-5 -12 4 -5.0343 -0.3200
-5 -12 5 -6.0021 -1.7197
-5 -12 6 -5.0655 0.1403
-5 -12 7 -8.9824 2.0171
-5 -12 8 -6.1710 3.1016
-5 -11 1 -10.0266 0.1058
-5 -11 2 0.5129 0.6435
-5 -11 3 -1.9254 -0.3319
-5 -11 4 0.4639 0.3170
-5 -11 5 1.3255 1.1345
-5 -11 6 1.1445 0.5323
-5 -11 7 4.8748 -0.6345
-5 -11 8 2.2945 -2.6678
-5 -11 9 -3.1323 -4.2214
-5 -10 1 7.2904 0.5940
-5 -10 2 0.1013 0.1685
-5 -10 3 7.5607 0.5185
-5 -10 4 8.4483 0.1696
-5 -10 5 5.5047 -0.4688
-5 -10 6 3.1765 -0.9390
-5 -10 7 -0.0487 -1.1194
-5 -10 8 3.2410 -0.0854
-5 -10 9 6.6042 1.1974
-5 -10 10 2.3145 2.1340
-5 -9 1 -2.5566 -0.0247
-5 -9 2 12.5609 -0.0054
-5 -9 3 7.4939 -0.2129
-5 -9 4 2.8561 -0.1010
-5 -9 5 -0.0377 -0.0312
-5 -9 6 -2.7564 0.0269
-5 -9 7 -2.5959 0.2620
-5 -9 8 -5.0627 0.1777
-5 -9 9 -3.4778 0.0238
-5 -9 10 3.7338 -1.1320
-5 -9 11 4.5436 -3.6439
-5 -8 1 -0.8823 -0.0340
-5 -8 2 -11.4403 0.2052
-5 -8 3 -4.8967 0.3530
-5 -8 4 -1.4178 0.0060
-5 -8 5 -0.7355 -0.2405
-5 -8 6 0.0518 -0.0019
-5 -8 7 0.4296 0.1295
-5 -8 8 5.5110 -0.1848
-5 -8 9 4.0145 -0.8936
-5 -8 10 -4.8805 -0.2763
-5 -8 11 -5.8001 2.8434
-5 -8 12 -0.2883 3.6412
-5 -7 1 -9.4678 -0.2249
-5 -7 2 8.3668 -0.0022
-5 -7 3 6.5021 -0.0648
-5 -7 4 4.7004 0.1682
-5 -7 5 4.2748 0.4347
-5 -7 6 4.8295 -0.0858
-5 -7 7 5.8687 -0.7486
-5 -7 8 -1.2110 -0.6553
-5 -7 9 -2.8019 0.3849
-5 -7 10 4.1365 1.3575
-5 -7 11 2.8665 0.4737
-5 -7 12 -3.2522 1.1815
-5 -6 1 0.4420 0.4630
-5 -6 2 -3.6060 0.7825
-5 -6 3 6.3163 1.1324
-5 -6 4 7.7792 0.7996
-5 -6 5 0.8716 -0.3443
-5 -6 6 -8.8633 -0.8867
-5 -6 7 -16.1935 -0.5687
-5 -6 8 -7.6391 0.1508
-5 -6 9 0.1185 0.8407
-5 -6 10 -3.7082 0.6052
-5 -6 11 -2.7265 0.3343
-5 -6 12 2.1490 -1.8527
-5 -5 1 6.2837 1.0624
-5 -5 2 15.5365 1.3090
-5 -5 3 2.7202 0.6551
-5 -5 4 -7.6256 -0.4405
-5 -5 5 -9.3076 -0.7532
-5 -5 6 -4.8669 -0.4796
-5 -5 7 4.9677 0.1321
-5 -5 8 2.9980 0.6666
-5 -5 9 -0.7543 0.3737
-5 -5 10 5.9060 0.1550
-5 -5 11 6.3143 -0.1624
-5 -5 12 -0.0214 0.8946
-5 -5 13 1.9821 3.5055
-5 -4 1 -9.0041 1.1527
-5 -4 2 -18.2645 0.2797
-5 -4 3 -6.5151 -0.7307
-5 -4 4 2.5366 -0.7756
-5 -4 5 3.6732 -0.2271
-5 -4 6 4.6010 0.4189
-5 -4 7 -0.6136 0.6544
-5 -4 8 1.5106 0.1734
-5 -4 9 6.5124 -0.3097
-5 -4 10 0.4318 -0.6239
-5 -4 11 -1.1404 0.0747
-5 -4 12 5.3908 1.1934
-5 -4 13 3.2096 0.8661
-5 -3 1 -4.9932 -0.2087
-5 -3 2 14.8273 -0.5862
-5 -3 3 11.4060 -0.2448
-5 -3 4 6.9286 0.1170
-5 -3 5 7.5616 0.3396
-5 -3 6 1.5241 0.4774
-5 -3 7 3.3556 0.1247
-5 -3 8 5.4503 -0.3242
-5 -3 9 3.0140 -0.2899
-5 -3 10 8.3268 0.2765
-5 -3 11 8.8112 0.6135
-5 -3 12 -0.7579 -0.1081
-5 -3 13 -1.8278 -0.6806
-5 -2 1 5.4282 -0.4810
-5 -2 2 1.6597 -0.0901
-5 -2 3 11.6168 0.1605
-5 -2 4 12.2393 0.3242
-5 -2 5 0.5450 0.2402
-5 -2 6 0.2893 -0.4381
-5 -2 7 -2.6660 -0.6278
-5 -2 8 -5.9885 0.0106
-5 -2 9 -0.5601 0.5544
-5 -2 10 -1.6733 0.8294
-5 -2 11 -4.2587 0.2442
-5 -2 12 -0.4200 -0.5806
-5 -2 13 -3.2465 -1.5379
-5 -1 1 -0.9714 1.0829
-5 -1 2 2.5657 1.0058
-5 -1 3 -8.4204 0.5270
-5 -1 4 -13.8991 -0.0978
-5 -1 5 -6.4395 -0.6114
-5 -1 6 -8.9571 -0.4038
-5 -1 7 -5.9174 -0.1018
-5 -1 8 2.6994 -0.0432
-5 -1 9 0.0366 0.1709
-5 -1 10 -2.1442 -0.5381
-5 -1 11 -2.1946 -1.1988
-5 -1 12 -5.1126 -1.5949
-5 -1 13 -0.5687 -1.8166
-5 0 1 -18.3048 1.1785
-5 0 2 -10.7566 0.5807
-5 0 3 2.2765 -0.0564
-5 0 4 8.6601 -0.6385
-5 0 5 1.3197 -0.7187
-5 0 6 3.6205 -0.0941
-5 0 7 3.8387 0.9598
-5 0 8 -2.2039 1.3069
-5 0 9 0.5778 0.2792
-5 0 10 3.4028 -0.2673
-5 0 11 3.1001 -0.6691
-5 0 12 3.9319 -0.4223
-5 0 13 0.0423 1.1248
-5 1 1 14.0471 1.1705
-5 1 2 16.2253 0.3107
-5 1 3 10.1282 -0.8091
-5 1 4 -0.4826 -1.0531
-5 1 5 -0.3414 -0.0280
-5 1 6 -2.7150 0.8014
-5 1 7 -1.2463 0.7507
-5 1 8 6.7618 0.6977
-5 1 9 7.5316 0.8124
-5 1 10 4.1483 0.3875
-5 1 11 -0.2619 1.0862
-5 1 12 -4.0426 1.9547
-5 1 13 -2.1021 1.2819
-5 2 1 -4.4104 -0.3682
-5 2 2 -9.7657 -1.0820
-5 2 3 -12.2889 -0.8227
-5 2 4 -4.2280 0.0105
-5 2 5 -2.3390 0.0868
-5 2 6 -0.5990 0.2105
-5 2 7 0.2225 0.3495
-5 2 8 -3.6089 -0.5645
-5 2 9 -5.7610 -0.8354
-5 2 10 -5.0859 0.1589
-5 2 11 -0.5858 0.0652
-5 2 12 2.7070 0.2688
-5 3 1 -6.8723 -0.3277
-5 3 2 4.2659 -0.6104
-5 3 3 13.2888 -0.6188
-5 3 4 6.1538 -0.7339
-5 3 5 1.3385 -0.1188
-5 3 6 0.1463 0.0054
-5 3 7 -0.3552 -0.5051
-5 3 8 2.6413 0.2410
-5 3 9 7.5862 0.2977
-5 3 10 9.3076 0.4006
-5 3 11 3.0721 2.9620
-5 3 12 -1.8609 3.8631
-5 4 1 11.4187 0.1714
-5 4 2 2.3825 0.6417
-5 4 3 -8.6196 0.2412
-5 4 4 -6.2681 0.2148
-5 4 5 -5.4142 -0.0741
-5 4 6 -6.6940 -0.3109
-5 4 7 -3.5525 0.0847
-5 4 8 0.5764 -0.5522
-5 4 9 0.1654 0.4079
-5 4 10 -2.1958 0.9047
-5 4 11 0.4005 -2.2146
-5 5 1 -0.1056 1.0876
-5 5 2 7.5135 0.2104
-5 5 3 11.8785 0.7234
-5 5 4 2.9257 0.4738
-5 5 5 -1.2681 -0.2964
-5 5 6 1.9126 -0.1695
-5 5 7 4.1066 -0.2180
-5 5 8 3.3476 0.4815
-5 5 9 2.6880 -1.2407
-5 5 10 2.7273 -2.5678
-5 5 11 -0.4232 0.4554
-5 6 1 9.7533 0.5827
-5 6 2 2.4912 1.0416
-5 6 3 -2.2382 -0.6495
-5 6 4 3.8882 -1.0767
-5 6 5 4.2512 0.4903
-5 6 6 -0.8270 0.6870
-5 6 7 -4.1372 0.6490
-5 6 8 -3.1143 -0.2561
-5 6 9 0.8753 1.0143
-5 6 10 2.6734 2.2305
-5 7 1 -5.5317 0.6499
-5 7 2 1.1327 -0.7164
-5 7 3 1.3704 -0.0192
-5 7 4 -9.1415 0.0299
-5 7 5 -11.3047 -1.5614
-5 7 6 -7.5757 -0.7351
-5 7 7 -2.5375 -0.2014
-5 7 8 1.6408 -0.0432
-5 7 9 0.9449 -1.7016
-5 8 1 13.4031 0.1650
-5 8 2 5.5209 0.2279
-5 8 3 2.9714 -0.5949
-5 8 4 9.0022 -0.2274
-5 8 5 6.3861 2.0158
-5 8 6 3.9683 1.2117
-5 8 7 4.0073 0.8077
-5 8 8 2.5262 1.1613
-5 9 1 -7.2063 -0.0478
-5 9 2 -0.0255 -0.1859
-5 9 3 -0.3316 -0.1544
-5 9 4 -7.8304 -0.5093
-5 9 5 -4.3633 -1.7521
-5 9 6 -2.1263 0.3933
-5 10 1 6.8186 1.0055
-5 10 2 3.5680 0.2129
-5 10 3 5.7773 0.3141
-5 10 4 11.4586 0.7837
-5 11 1 -2.2344 -2.0674
-4 -15 1 -1.4942 0.4926
-4 -15 2 -1.9674 -0.4737
-4 -14 1 2.7382 -0.2506
-4 -14 2 1.6739 0.0253
-4 -14 3 -1.5139 0.8509
-4 -14 4 -1.5840 1.9269
-4 -14 5 1.7649 4.5479
-4 -13 1 0.9191 0.9219
-4 -13 2 1.1657 1.3197
-4 -13 3 1.1806 0.6691
-4 -13 4 2.3391 -0.3515
-4 -13 5 1.3872 -3.0636
-4 -13 6 12.5911 -2.7451
-4 -13 7 19.6275 0.7095
-4 -12 1 -5.2469 -1.1475
-4 -12 2 -2.2982 -0.8661
-4 -12 3 4.9362 0.1831
-4 -12 4 3.5938 0.7380
-4 -12 5 2.2050 2.0884
-4 -12 6 -7.4288 1.0620
-4 -12 7 -12.9678 -1.7233
-4 -12 8 -4.9040 -0.6157
-4 -12 9 1.2615 2.7960
-4 -11 1 2.1417 -0.4500
-4 -11 2 -0.3050 0.2160
-4 -11 3 -10.6388 0.4527
-4 -11 4 -6.3544 0.5830
-4 -11 5 -2.6927 -0.4696
-4 -11 6 2.6630 -0.0037
-4 -11 7 5.5691 1.9019
-4 -11 8 -0.4957 1.2603
-4 -11 9 -2.5063 -1.1984
-4 -11 10 0.8175 -2.7949
-4 -10 1 -12.7193 -0.1016
-4 -10 2 -6.8090 0.6052
-4 -10 3 10.4794 0.4424
-4 -10 4 6.6324 -0.1286
-4 -10 5 2.3803 0.2328
-4 -10 6 0.8891 0.0272
-4 -10 7 -0.3322 -0.8590
-4 -10 8 3.8716 -0.8292
-4 -10 9 3.0612 -0.4893
-4 -10 10 -2.0647 -0.1414
-4 -10 11 -1.2787 -0.5492
-4 -9 1 6.2623 0.1104
-4 -9 2 4.6153 0.0495
-4 -9 3 -9.8644 0.4405
-4 -9 4 -0.8901 0.6031
-4 -9 5 5.6713 0.0304
-4 -9 6 4.7524 -0.2338
-4 -9 7 4.5913 -0.3600
-4 -9 8 -0.3352 -0.5631
-4 -9 9 -0.6282 -0.0083
-4 -9 10 3.2711 0.5133
-4 -9 11 -0.1534 1.4578
-4 -8 1 -5.4890 -0.2691
-4 -8 2 0.0184 0.1060
-4 -8 3 17.3204 -0.0909
-4 -8 4 7.4986 -0.1170
-4 -8 5 -0.7225 -0.0023
-4 -8 6 -1.7821 -0.2654
-4 -8 7 -4.4298 -0.0936
-4 -8 8 1.6283 0.5046
-4 -8 9 5.6902 0.3585
-4 -8 10 3.1634 -0.3021
-4 -8 11 4.8877 -2.3101
-4 -8 12 6.4614 -6.8868
-4 -7 1 -9.9466 -0.2604
-4 -7 2 -13.0516 -0.5287
-4 -7 3 -22.7555 -0.1761
-4 -7 4 -6.6536 -0.0279
-4 -7 5 2.4421 0.0655
-4 -7 6 2.7445 0.4578
-4 -7 7 6.9351 0.4520
-4 -7 8 0.8495 -0.3008
-4 -7 9 -5.2527 -1.1686
-4 -7 10 -4.4199 -1.7061
-4 -7 11 -7.2579 -0.4597
-4 -7 12 -8.9285 4.7138
-4 -7 13 -3.3353 7.8625
-4 -6 1 -7.2076 -0.5483
-4 -6 2 2.5153 -0.0239
-4 -6 3 16.6485 0.1683
-4 -6 4 4.8285 0.3776
-4 -6 5 0.1062 0.4136
-4 -6 6 1.7450 0.0227
-4 -6 7 -5.4691 -0.7736
-4 -6 8 -3.0760 -1.2299
-4 -6 9 1.6656 -0.5971
-4 -6 10 1.3800 1.0367
-4 -6 11 5.2169 2.4235
-4 -6 12 5.5704 0.1773
-4 -6 13 -1.5900 -2.4317
-4 -5 1 -12.7284 -1.0535
-4 -5 2 -11.8700 -0.0731
-4 -5 3 -14.4339 0.7560
-4 -5 4 2.5838 0.9555
-4 -5 5 5.3973 0.3640
-4 -5 6 -3.4027 -0.7542
-4 -5 7 -0.2291 -0.9332
-4 -5 8 -0.6299 0.0703
-4 -5 9 -1.4410 1.0150
-4 -5 10 0.4918 0.9791
-4 -5 11 -4.8736 -0.7462
-4 -5 12 -5.4835 -1.4559
-4 -5 13 3.5234 -1.0933
-4 -4 1 17.4085 0.6861
-4 -4 2 19.0483 1.1803
-4 -4 3 21.7335 1.2593
-4 -4 4 1.4786 0.4525
-4 -4 5 -8.8565 -0.5681
-4 -4 6 -2.7941 -0.4888
-4 -4 7 -4.5380 0.0543
-4 -4 8 -2.4180 0.3474
-4 -4 9 0.6761 0.2983
-4 -4 10 0.1512 -0.3747
-4 -4 11 5.2391 -0.2886
-4 -4 12 2.8783 0.1055
-4 -4 13 -9.8987 0.0297
-4 -4 14 -7.3581 1.2978
-4 -3 1 -29.0793 1.0643
-4 -3 2 -30.7411 1.0970
-4 -3 3 -33.4004 0.0556
-4 -3 4 -13.1329 -0.6407
-4 -3 5 2.7581 -0.3984
-4 -3 6 -0.2271 0.0720
-4 -3 7 2.3146 0.5422
-4 -3 8 1.8810 0.5541
-4 -3 9 -0.7544 0.0129
-4 -3 10 1.5523 -0.0754
-4 -3 11 0.0766 0.0320
-4 -3 12 5.8810 -0.0364
-4 -3 13 21.1974 0.4381
-4 -3 14 17.7195 0.1465
-4 -2 1 0.0137 0.4395
-4 -2 2 5.6089 -0.3820
-4 -2 3 20.9316 -0.7815
-4 -2 4 17.6205 -0.7211
-4 -2 5 9.1175 -0.2197
-4 -2 6 13.7057 0.2828
-4 -2 7 9.6284 0.2252
-4 -2 8 7.1825 -0.0531
-4 -2 9 10.6990 -0.1770
-4 -2 10 8.7606 -0.2407
-4 -2 11 8.3638 -0.4931
-4 -2 12 2.2342 -0.3586
-4 -2 13 -13.3826 -0.6651
-4 -2 14 -12.3600 -1.2841
-4 -1 1 -6.2689 -1.5707
-4 -1 2 4.9212 -0.8972
-4 -1 3 -0.9622 0.1116
-4 -1 4 -1.9549 0.7315
-4 -1 5 0.5186 0.2323
-4 -1 6 -9.3334 -0.5205
-4 -1 7 -7.9310 -0.7703
-4 -1 8 -4.5363 -0.6788
-4 -1 9 -8.0089 -0.2991
-4 -1 10 -4.9174 -0.2784
-4 -1 11 -3.6427 -0.0324
-4 -1 12 -3.1427 -0.4669
-4 -1 13 4.7501 -1.4218
-4 -1 14 3.1821 -1.6850
-4 0 1 -3.7158 0.7591
-4 0 2 -18.1409 1.3165
-4 0 3 -9.4307 1.0686
-4 0 4 0.1102 0.4310
-4 0 5 -0.6142 0.2937
-4 0 6 4.8787 0.0478
-4 0 7 0.0453 -0.2369
-4 0 8 -3.4954 0.0649
-4 0 9 3.9327 0.4305
-4 0 10 3.1471 1.1295
-4 0 11 0.2660 0.4957
-4 0 12 0.6984 -0.6376
-4 0 13 -3.1804 -0.9454
-4 0 14 -1.5853 -1.2848
-4 1 1 -17.1450 1.8028
-4 1 2 5.7493 1.8510
-4 1 3 3.3878 1.1096
-4 1 4 -6.3018 0.0614
-4 1 5 -4.3837 -0.9515
-4 1 6 -5.3084 -0.7591
-4 1 7 2.9287 0.3309
-4 1 8 9.3339 1.0386
-4 1 9 2.9630 1.2346
-4 1 10 2.0644 0.1848
-4 1 11 2.7515 -0.1100
-4 1 12 -0.6177 0.3566
-4 1 13 0.1075 0.7094
-4 1 14 0.1704 1.8681
-4 2 1 0.0876 0.6519
-4 2 2 -14.3974 0.6602
-4 2 3 -5.0112 0.3054
-4 2 4 8.6853 -0.3896
-4 2 5 6.0210 -0.6460
-4 2 6 4.5983 -0.3682
-4 2 7 -1.1244 0.2272
-4 2 8 -5.1540 0.6014
-4 2 9 0.0920 0.0283
-4 2 10 0.3990 -0.4781
-4 2 11 -0.9815 -1.0091
-4 2 12 0.3407 -0.4043
-4 2 13 -0.7029 0.7839
-4 3 1 1.2467 0.8345
-4 3 2 13.7839 0.0601
-4 3 3 3.4476 -0.8965
-4 3 4 -8.8132 -0.8859
-4 3 5 -3.5817 -0.1022
-4 3 6 -0.1489 0.4077
-4 3 7 2.9175 0.1868
-4 3 8 5.5138 -0.0318
-4 3 9 2.7951 0.2231
-4 3 10 1.6866 0.9222
-4 3 11 -0.2595 1.6745
-4 3 12 -2.0204 0.3375
-4 3 13 -0.6478 -1.0360
-4 4 1 -7.9283 -0.6294
-4 4 2 -16.4016 -0.2160
-4 4 3 -3.1205 -0.2010
-4 4 4 8.2888 -0.4494
-4 4 5 0.9992 -0.6295
-4 4 6 -4.3094 -0.2311
-4 4 7 -5.1667 0.3801
-4 4 8 -4.8526 -0.0104
-4 4 9 -1.3904 -0.3008
-4 4 10 2.2793 -0.6929
-4 4 11 6.1291 -0.5695
-4 4 12 4.8566 2.8476
-4 4 13 0.0421 5.1347
-4 5 1 9.4931 0.6427
-4 5 2 15.5675 0.2664
-4 5 3 2.1432 0.7579
-4 5 4 -8.8278 0.9255
-4 5 5 -3.7650 0.5670
-4 5 6 -0.1765 -0.1717
-4 5 7 1.3291 -0.9607
-4 5 8 4.9875 -0.4613
-4 5 9 6.4966 -0.9695
-4 5 10 3.5617 -1.2413
-4 5 11 -2.9887 -1.1761
-4 5 12 -4.0442 -4.7501
-4 6 1 -5.3354 0.0912
-4 6 2 -8.6441 1.2217
-4 6 3 3.7305 0.5576
-4 6 4 11.4823 0.1464
-4 6 5 5.4803 0.0477
-4 6 6 2.9503 -0.0482
-4 6 7 2.1815 0.7126
-4 6 8 -1.8101 0.6624
-4 6 9 -4.2605 1.9678
-4 6 10 -3.1140 2.0615
-4 6 11 1.1468 0.1420
-4 7 1 6.5420 1.4304
-4 7 2 10.8745 1.1341
-4 7 3 0.1684 1.1783
-4 7 4 -7.4301 -0.0119
-4 7 5 -3.8745 -0.5864
-4 7 6 -4.7996 0.4935
-4 7 7 -4.4278 0.1719
-4 7 8 1.5873 -0.2959
-4 7 9 5.4329 -2.7021
-4 7 10 6.2018 -3.6590
-4 8 1 -2.5472 0.1667
-4 8 2 -5.9397 0.3400
-4 8 3 3.3497 -0.1059
-4 8 4 7.7774 0.5900
-4 8 5 0.3542 0.2415
-4 8 6 -0.1265 -1.8879
-4 8 7 -0.1683 -1.0738
-4 8 8 -3.5564 0.3488
-4 8 9 -1.9777 2.6969
-4 9 1 0.4524 0.7326
-4 9 2 6.5863 0.4618
-4 9 3 -1.2094 -0.3463
-4 9 4 -5.1809 -2.0239
-4 9 5 2.6785 -1.2609
-4 9 6 2.2559 2.3826
-4 9 7 1.8084 2.3100
-4 9 8 5.3308 1.0646
-4 10 1 2.8744 1.2714
-4 10 2 -3.0729 1.4033
-4 10 3 4.5549 1.6204
-4 10 4 7.6320 2.3345
-4 10 5 -1.2345 0.8758
-4 10 6 -0.4158 -2.9234
-4 11 1 -1.8488 -0.8528
-4 11 2 7.0834 -1.7112
-4 11 3 2.4193 -2.5905
-4 11 4 -0.1706 -3.4032
-3 -15 1 -2.0325 -0.9992
-3 -15 2 -2.6536 0.1957
-3 -14 1 2.1026 0.7342
-3 -14 2 2.7087 0.6322
-3 -14 3 -0.3912 1.0198
-3 -14 4 -2.7014 1.1404
-3 -14 5 -3.0355 -0.4625
-3 -13 1 -0.6003 0.1238
-3 -13 2 -4.4847 -0.0945
-3 -13 3 -2.4827 -0.2761
-3 -13 4 1.5607 0.5312
-3 -13 5 1.7769 1.9483
-3 -13 6 2.7110 2.7018
-3 -13 7 -4.3428 0.5322
-3 -12 1 0.3814 -0.6693
-3 -12 2 1.0358 -0.2604
-3 -12 3 -1.4747 0.2144
-3 -12 4 -5.2368 -0.4950
-3 -12 5 -0.7296 -1.1200
-3 -12 6 2.7514 -1.0255
-3 -12 7 10.8079 0.6940
-3 -12 8 13.4513 1.9801
-3 -12 9 5.6450 0.2233
-3 -11 1 -2.4008 -0.2410
-3 -11 2 -2.8451 -0.3826
-3 -11 3 0.8159 -0.5664
-3 -11 4 8.4423 0.3457
-3 -11 5 3.6510 0.7212
-3 -11 6 0.2079 0.0330
-3 -11 7 -3.8091 -1.5890
-3 -11 8 -4.3434 -1.7328
-3 -11 9 2.8188 1.2265
-3 -11 10 4.5082 3.5248
-3 -10 1 -2.4015 -1.8891
-3 -10 2 -4.4018 -1.4889
-3 -10 3 -7.1692 0.1215
-3 -10 4 -15.0397 0.7130
-3 -10 5 -6.0980 0.3536
-3 -10 6 0.1349 0.0347
-3 -10 7 1.7727 0.7356
-3 -10 8 2.7514 0.7420
-3 -10 9 -1.9934 -1.2985
-3 -10 10 -2.6299 -2.9452
-3 -10 11 1.9131 -2.9244
-3 -9 1 -3.3252 -0.6707
-3 -9 2 -3.6497 -0.0042
-3 -9 3 -0.8794 -0.4072
-3 -9 4 11.9609 -0.7301
-3 -9 5 4.4389 -0.1020
-3 -9 6 -0.1923 0.5402
-3 -9 7 3.0185 -0.1402
-3 -9 8 1.9028 -0.6140
-3 -9 9 4.2585 0.1118
-3 -9 10 4.5546 0.6479
-3 -9 11 -1.1114 1.2464
-3 -9 12 -3.2685 2.1419
-3 -8 1 -1.4512 -0.4272
-3 -8 2 -4.0800 -0.1166
-3 -8 3 -5.0825 0.5760
-3 -8 4 -14.9452 1.1787
-3 -8 5 0.3533 0.4399
-3 -8 6 10.3118 -0.5197
-3 -8 7 5.3491 -0.1433
-3 -8 8 5.8014 0.1821
-3 -8 9 2.1447 0.0696
-3 -8 10 -2.6217 0.6157
-3 -8 11 0.2393 0.4783
-3 -8 12 1.0309 -1.3192
-3 -8 13 -3.8741 -1.9705
-3 -7 1 1.0858 0.1193
-3 -7 2 1.0268 -0.0396
-3 -7 3 0.8006 -0.0061
-3 -7 4 13.3303 -0.2723
-3 -7 5 -0.5929 0.1484
-3 -7 6 -8.9253 0.4311
-3 -7 7 -0.1017 -0.1516
-3 -7 8 -0.7692 0.0426
-3 -7 9 1.3055 0.6173
-3 -7 10 6.0842 -0.3568
-3 -7 11 1.1543 -1.9036
-3 -7 12 -2.5239 -1.8851
-3 -7 13 1.4216 -2.2635
-3 -6 1 -9.2350 -1.1206
-3 -6 2 -18.3727 -0.9404
-3 -6 3 -15.9874 -0.7379
-3 -6 4 -22.2824 -0.2140
-3 -6 5 -2.5024 -0.1784
-3 -6 6 9.1692 0.0431
-3 -6 7 -0.1617 0.6257
-3 -6 8 1.3546 -0.0094
-3 -6 9 0.5639 -1.3926
-3 -6 10 -5.2318 -1.4669
-3 -6 11 -1.6019 -0.0634
-3 -6 12 0.8807 0.7138
-3 -6 13 -4.1779 1.9950
-3 -6 14 -2.6205 3.8588
-3 -5 1 -19.5027 -0.3212
-3 -5 2 -9.1810 -0.7416
-3 -5 3 -8.0887 -0.8055
-3 -5 4 6.8557 -0.3931
-3 -5 5 -0.1382 0.4722
-3 -5 6 -4.1328 0.5687
-3 -5 7 6.6286 -0.2977
-3 -5 8 1.1563 -0.8439
-3 -5 9 -3.4843 -0.5349
-3 -5 10 0.7124 0.0810
-3 -5 11 -0.8896 0.1215
-3 -5 12 -1.3993 0.4577
-3 -5 13 2.5343 -0.1888
-3 -5 14 -0.9664 -2.5353
-3 -4 1 6.5790 -2.1577
-3 -4 2 -6.2824 -1.1289
-3 -4 3 2.1866 0.6161
-3 -4 4 -2.7919 1.3464
-3 -4 5 3.8682 0.6839
-3 -4 6 5.6408 -0.3016
-3 -4 7 -7.3428 -0.8597
-3 -4 8 -3.4879 -0.5122
-3 -4 9 2.5075 0.3693
-3 -4 10 -0.8624 0.7325
-3 -4 11 -1.5164 0.7650
-3 -4 12 -2.9588 -0.1531
-3 -4 13 -4.2454 -1.0093
-3 -4 14 3.5398 0.2507
-3 -3 1 -0.2085 -0.5519
-3 -3 2 11.1796 0.7454
-3 -3 3 -5.0065 0.9942
-3 -3 4 -6.3549 0.9772
-3 -3 5 -9.7137 0.4898
-3 -3 6 -10.0642 -0.1624
-3 -3 7 3.6421 -0.0520
-3 -3 8 3.4208 0.2504
-3 -3 9 -1.1024 0.3522
-3 -3 10 1.8079 0.5117
-3 -3 11 2.0192 -0.0579
-3 -3 12 1.6022 -0.8189
-3 -3 13 -0.8798 -0.8836
-3 -3 14 -10.1143 -1.6842
-3 -3 15 -7.4975 -1.8633
-3 -2 1 -21.4271 0.4678
-3 -2 2 -43.7724 0.6692
-3 -2 3 -22.3672 0.5398
-3 -2 4 -9.8241 -0.4920
-3 -2 5 -1.6477 -0.9407
-3 -2 6 6.3194 -0.5264
-3 -2 7 -0.3702 -0.1402
-3 -2 8 0.4730 0.3348
-3 -2 9 4.6100 0.3908
-3 -2 10 1.4697 -0.2717
-3 -2 11 1.8304 -0.5876
-3 -2 12 5.6841 -0.0841
-3 -2 13 12.7441 -0.2042
-3 -2 14 23.6658 -0.4169
-3 -2 15 18.3138 -0.5730
-3 -1 1 -0.1797 -0.9552
-3 -1 2 17.0785 -0.3653
-3 -1 3 -2.8656 -0.5351
-3 -1 4 -4.5222 -0.4155
-3 -1 5 7.3612 -0.4646
-3 -1 6 10.0352 -0.3147
-3 -1 7 15.9919 0.0384
-3 -1 8 10.8116 -0.2687
-3 -1 9 0.8209 -0.5349
-3 -1 10 1.7475 -0.4867
-3 -1 11 2.9439 -0.2722
-3 -1 12 1.0204 -0.6534
-3 -1 13 -3.7200 -0.6221
-3 -1 14 -12.9797 -0.2490
-3 -1 15 -9.5400 -0.6570
-3 0 1 -11.6480 -0.2103
-3 0 2 -23.0403 -0.5116
-3 0 3 5.2977 -0.1066
-3 0 4 13.6036 0.2689
-3 0 5 0.1709 0.6161
-3 0 6 -4.1492 0.1811
-3 0 7 -10.4783 -0.3766
-3 0 8 -6.6605 -0.1011
-3 0 9 3.4432 0.0057
-3 0 10 1.8311 0.2739
-3 0 11 -1.0185 -0.0018
-3 0 12 -1.5443 -0.3652
-3 0 13 -2.3348 -1.1556
-3 0 14 1.8771 -2.3806
-3 0 15 0.8030 -1.9410
-3 1 1 3.2469 -1.1723
-3 1 2 3.0346 0.4286
-3 1 3 -22.4371 1.1131
-3 1 4 -22.7998 1.0783
-3 1 5 -1.0620 0.3505
-3 1 6 5.7180 -0.0057
-3 1 7 10.3964 -0.3825
-3 1 8 6.4565 -0.7371
-3 1 9 -2.7977 0.2320
-3 1 10 -0.1197 0.6280
-3 1 11 1.9129 0.7840
-3 1 12 0.5374 0.5961
-3 1 13 2.8262 0.3881
-3 1 14 2.3617 0.9246
-3 2 1 -17.4272 -0.1774
-3 2 2 -19.0984 0.9822
-3 2 3 4.3867 1.7905
-3 2 4 8.3405 1.4458
-3 2 5 -6.5399 0.6016
-3 2 6 -6.3772 -0.4248
-3 2 7 -5.9637 -0.3117
-3 2 8 -1.3765 0.4415
-3 2 9 6.4627 -0.0856
-3 2 10 2.5564 0.0307
-3 2 11 -0.1825 0.1222
-3 2 12 0.3692 -0.1370
-3 2 13 -3.4393 -0.5617
-3 2 14 -4.0275 -1.3812
-3 3 1 -4.4928 -0.4106
-3 3 2 -2.6935 0.7169
-3 3 3 -16.2491 0.7101
-3 3 4 -11.3652 0.1073
-3 3 5 7.5924 -0.7971
-3 3 6 9.5612 -0.8144
-3 3 7 10.0122 -0.3725
-3 3 8 7.0600 0.4311
-3 3 9 -0.6883 1.7252
-3 3 10 -0.3934 1.0042
-3 3 11 -1.3343 -0.5171
-3 3 12 -2.9664 -1.0851
-3 3 13 0.8536 0.0241
-3 3 14 2.0856 2.0592
-3 4 1 1.1974 -0.0441
-3 4 2 -1.5061 0.7948
-3 4 3 10.2591 0.2283
-3 4 4 7.9148 -0.6859
-3 4 5 -4.4107 -0.6077
-3 4 6 -2.4922 -0.2943
-3 4 7 -2.8604 -0.0003
-3 4 8 -3.8769 -0.1643
-3 4 9 0.2116 -0.8018
-3 4 10 0.3137 -0.4885
-3 4 11 1.4670 0.2596
-3 4 12 1.4191 0.9100
-3 4 13 -2.3316 0.2017
-3 5 1 5.3301 -0.4028
-3 5 2 -0.3083 -0.1264
-3 5 3 -13.4059 0.7649
-3 5 4 -11.1747 1.0390
-3 5 5 -1.5532 0.2384
-3 5 6 -4.4990 -0.1892
-3 5 7 -2.9648 -0.2077
-3 5 8 1.9890 -0.2523
-3 5 9 1.8694 -0.7864
-3 5 10 3.0367 -0.8039
-3 5 11 3.0004 -0.0167
-3 5 12 3.0772 -0.1817
-3 5 13 3.3590 0.1936
-3 6 1 -9.6709 -0.5240
-3 6 2 -5.9496 0.2767
-3 6 3 5.6740 -0.1549
-3 6 4 6.1423 -0.1199
-3 6 5 2.4224 0.4987
-3 6 6 7.8761 0.3904
-3 6 7 6.1221 0.1225
-3 6 8 1.3217 0.4579
-3 6 9 3.7405 1.9511
-3 6 10 4.2057 1.1530
-3 6 11 1.1707 -1.7654
-3 6 12 -2.8847 -2.1791
-3 7 1 7.7758 -0.3242
-3 7 2 4.2415 0.5516
-3 7 3 -2.4438 1.6580
-3 7 4 -0.1894 1.1700
-3 7 5 2.5292 0.0078
-3 7 6 -3.2437 -0.3013
-3 7 7 -1.0192 -0.3734
-3 7 8 1.9302 -0.6220
-3 7 9 -5.5642 -2.4994
-3 7 10 -9.3575 -1.8879
-3 7 11 -4.9038 0.8833
-3 7 12 0.7442 0.1367
-3 8 1 -6.0957 -0.7893
-3 8 2 -6.7077 0.4828
-3 8 3 -2.2924 0.7223
-3 8 4 -3.5117 0.7768
-3 8 5 -3.8118 -0.0939
-3 8 6 3.0186 -1.1415
-3 8 7 0.2682 -0.7099
-3 8 8 -1.9983 0.0045
-3 8 9 8.8180 2.2386
-3 8 10 14.3761 1.8873
-3 8 11 8.5373 -0.7070
-3 9 1 -2.7280 -0.2632
-3 9 2 2.2349 0.7858
-3 9 3 0.5849 0.8191
-3 9 4 3.4626 0.1562
-3 9 5 4.2938 1.0093
-3 9 6 -3.9711 2.0017
-3 9 7 -1.9937 1.2588
-3 9 8 2.2285 1.3129
-3 9 9 -5.4928 0.0142
-3 10 1 -1.4261 0.3575
-3 10 2 -5.3249 0.8083
-3 10 3 1.1395 1.3523
-3 10 4 1.8870 1.0051
-3 10 5 2.1525 -1.9758
-3 10 6 11.5663 -4.0654
-3 10 7 9.6575 -2.7798
-3 10 8 1.6458 -2.4939
-3 11 1 1.3498 -0.1647
-3 11 2 4.9245 0.5084
-3 11 3 -0.6876 -0.6793
-3 11 4 1.5409 -1.5747
-3 11 5 4.3414 0.6309
-3 11 6 -5.1979 2.3418
-3 12 1 -2.4781 0.7763
-3 12 2 -2.8591 0.1324
-3 12 3 3.4950 1.0583
-2 -14 1 -1.9244 2.4519
-2 -14 2 3.1364 -0.6200
-2 -14 3 4.0075 -1.3233
-2 -14 4 1.2085 -1.0784
-2 -14 5 1.3462 -1.9032
-2 -13 1 8.0270 -2.1994
-2 -13 2 0.5691 -0.2872
-2 -13 3 -2.9311 0.7810
-2 -13 4 -2.7624 0.6657
-2 -13 5 -4.5318 0.7368
-2 -13 6 -3.6263 -0.9327
-2 -13 7 -3.4717 -2.0745
-2 -12 1 -3.8018 0.7228
-2 -12 2 -3.8525 -0.1677
-2 -12 3 -5.2132 -0.5729
-2 -12 4 -5.2367 -0.1382
-2 -12 5 0.2233 0.1483
-2 -12 6 1.4108 1.0074
-2 -12 7 3.3854 1.4234
-2 -12 8 1.7809 -0.3899
-2 -12 9 0.7163 -2.2466
-2 -11 1 2.8320 -0.2055
-2 -11 2 -2.2162 -0.2837
-2 -11 3 -2.3922 -0.2294
-2 -11 4 0.1894 -0.1906
-2 -11 5 -1.3151 0.1037
-2 -11 6 3.1531 0.3596
-2 -11 7 3.4362 0.2894
-2 -11 8 3.2852 0.4109
-2 -11 9 3.3484 0.3788
-2 -11 10 1.2163 0.2974
-2 -10 1 2.0069 0.1172
-2 -10 2 0.5832 -0.8322
-2 -10 3 -2.9921 -1.0983
-2 -10 4 -6.6833 -0.7564
-2 -10 5 -1.8929 -0.3412
-2 -10 6 -3.6334 -0.5799
-2 -10 7 -0.2558 -0.9542
-2 -10 8 4.4900 -0.6749
-2 -10 9 4.0578 0.3224
-2 -10 10 3.8349 0.4109
-2 -10 11 0.4321 -1.3199
-2 -9 1 -1.2839 -1.1822
-2 -9 2 -5.1908 -1.2610
-2 -9 3 -5.8185 -0.7176
-2 -9 4 -1.4615 -0.0963
-2 -9 5 -4.8185 0.0427
-2 -9 6 2.1648 -0.0083
-2 -9 7 3.7571 -0.0409
-2 -9 8 -0.2248 -0.3265
-2 -9 9 2.7924 -0.9601
-2 -9 10 4.0214 -0.3820
-2 -9 11 3.9578 1.6664
-2 -9 12 4.2741 2.5510
-2 -8 1 7.1067 0.0261
-2 -8 2 -0.3137 -0.7969
-2 -8 3 -4.1822 -0.8883
-2 -8 4 -8.5327 -0.2787
-2 -8 5 1.5606 0.5483
-2 -8 6 -1.0543 1.1816
-2 -8 7 -1.0983 1.0108
-2 -8 8 6.5312 0.2483
-2 -8 9 2.4674 -0.0182
-2 -8 10 -1.7954 -0.6643
-2 -8 11 -1.3632 -1.9029
-2 -8 12 -3.2957 -1.7378
-2 -8 13 -5.4038 0.5481
-2 -7 1 -3.4096 -0.7747
-2 -7 2 -5.6134 -0.4149
-2 -7 3 -9.0418 0.2093
-2 -7 4 -3.5996 0.2599
-2 -7 5 -10.3681 0.0773
-2 -7 6 0.5130 -0.4890
-2 -7 7 9.3606 -0.5929
-2 -7 8 0.7136 0.1711
-2 -7 9 1.3508 0.4916
-2 -7 10 3.3492 0.9412
-2 -7 11 -1.6516 1.8166
-2 -7 12 -2.1352 1.5328
-2 -7 13 1.5956 -1.1611
-2 -7 14 -0.7323 -4.0770
-2 -6 1 21.2737 0.4925
-2 -6 2 8.1508 -0.0411
-2 -6 3 0.7086 -0.5505
-2 -6 4 -10.5528 -0.2654
-2 -6 5 2.1591 -0.0687
-2 -6 6 0.3524 0.2915
-2 -6 7 -4.3697 0.3216
-2 -6 8 9.1443 -0.1883
-2 -6 9 9.7142 0.0982
-2 -6 10 2.3798 0.1809
-2 -6 11 2.4008 -1.0105
-2 -6 12 0.5410 -2.4527
-2 -6 13 -4.0140 -1.5286
-2 -6 14 -1.2591 1.2920
-2 -5 1 -18.9053 -0.5853
-2 -5 2 -25.1633 -1.2024
-2 -5 3 -27.1928 -0.9508
-2 -5 4 -8.9440 -0.7223
-2 -5 5 -12.6077 -0.2033
-2 -5 6 -6.0494 0.0696
-2 -5 7 4.7316 0.3324
-2 -5 8 -6.9625 0.5761
-2 -5 9 -9.7315 -0.3784
-2 -5 10 -2.3490 -1.3994
-2 -5 11 -1.4880 -1.0213
-2 -5 12 -0.9438 0.7260
-2 -5 13 1.2027 0.9789
-2 -5 14 -2.2799 -1.4601
-2 -5 15 -2.3839 -1.8264
-2 -4 1 1.5474 -1.0992
-2 -4 2 -4.9052 -0.7970
-2 -4 3 -3.7950 -0.7256
-2 -4 4 -21.7938 -0.3811
-2 -4 5 -9.6591 0.1317
-2 -4 6 2.7985 0.6342
-2 -4 7 2.1256 0.3517
-2 -4 8 12.3133 -0.5631
-2 -4 9 11.3880 -0.6885
-2 -4 10 -0.0760 -0.0481
-2 -4 11 -3.8351 0.6453
-2 -4 12 -3.0438 0.1530
-2 -4 13 -1.6892 -0.4286
-2 -4 14 2.7698 0.7571
-2 -4 15 2.0742 0.6430
-2 -3 1 6.0794 0.6048
-2 -3 2 -4.9392 -0.8044
-2 -3 3 -18.1999 -0.8053
-2 -3 4 9.7783 0.2480
-2 -3 5 14.5188 0.7909
-2 -3 6 2.3513 0.3222
-2 -3 7 -0.5686 -0.2838
-2 -3 8 -9.5043 -0.3830
-2 -3 9 -10.1750 0.0428
-2 -3 10 -2.2493 0.5328
-2 -3 11 -0.0267 0.0940
-2 -3 12 -1.6855 -0.4411
-2 -3 13 -3.2283 -0.4321
-2 -3 14 -5.1014 -1.1233
-2 -3 15 -1.4924 -0.7814
-2 -2 1 -3.0043 -3.2713
-2 -2 2 -1.4800 -1.6866
-2 -2 3 11.5209 0.2362
-2 -2 4 -22.9401 0.7269
-2 -2 5 -35.5337 0.4774
-2 -2 6 -13.2794 -0.0907
-2 -2 7 2.2109 -0.4608
-2 -2 8 13.0534 -0.0809
-2 -2 9 13.8750 0.2080
-2 -2 10 6.7686 0.1144
-2 -2 11 2.9554 0.4542
-2 -2 12 1.7882 0.7751
-2 -2 13 1.4650 -0.1315
-2 -2 14 3.4334 -0.9644
-2 -2 15 3.2537 -1.7248
-2 -1 1 -3.8455 -2.1592
-2 -1 2 -25.3654 -0.2690
-2 -1 3 -52.2666 0.3518
-2 -1 4 -14.4573 0.6464
-2 -1 5 17.3185 0.1174
-2 -1 6 7.0543 -0.2083
-2 -1 7 -1.3402 -0.1766
-2 -1 8 -4.2161 -0.4459
-2 -1 9 -3.9669 -0.1862
-2 -1 10 -1.8543 0.2997
-2 -1 11 -2.2107 0.1304
-2 -1 12 0.1345 -0.8133
-2 -1 13 6.6399 -0.9404
-2 -1 14 10.6232 -0.7009
-2 -1 15 11.0010 -0.8933
-2 0 1 3.9447 -0.5341
-2 0 2 2.8395 -0.2954
-2 0 3 21.0323 0.2100
-2 0 4 -6.6919 -0.2432
-2 0 5 -24.4719 -0.3865
-2 0 6 1.7852 -0.6069
-2 0 7 18.7577 -0.5791
-2 0 8 17.9596 0.1076
-2 0 9 10.1221 0.1056
-2 0 10 2.5362 -0.2191
-2 0 11 2.7924 -0.6891
-2 0 12 3.2445 -0.4458
-2 0 13 -1.8488 -0.3577
-2 0 14 -5.6705 -0.7595
-2 0 15 -5.5523 -0.6913
-2 1 1 -15.6758 -0.5317
-2 1 2 -16.7977 -0.0905
-2 1 3 -31.1829 -0.4377
-2 1 4 -3.7876 0.0223
-2 1 5 20.7601 0.1181
-2 1 6 4.7702 0.2700
-2 1 7 -5.9135 0.1136
-2 1 8 -5.4736 -0.4654
-2 1 9 -2.0006 -0.3300
-2 1 10 2.6257 -0.3648
-2 1 11 -0.7233 0.3625
-2 1 12 -4.4397 0.6851
-2 1 13 -1.0723 0.1750
-2 1 14 1.8810 -0.3107
-2 1 15 1.8516 -0.9921
-2 2 1 36.4409 -2.3851
-2 2 2 10.3619 -1.1064
-2 2 3 9.0554 0.8984
-2 2 4 -9.9362 1.4084
-2 2 5 -22.5884 1.3167
-2 2 6 -3.3251 0.4576
-2 2 7 6.8190 -0.2442
-2 2 8 8.0888 -0.4198
-2 2 9 6.5086 -0.4866
-2 2 10 -0.4470 0.7650
-2 2 11 -0.0323 0.6393
-2 2 12 2.2797 -0.4019
-2 2 13 -0.9656 -0.6329
-2 2 14 -1.8896 -0.3173
-2 2 15 0.2030 0.5837
-2 3 1 -38.5435 -3.3901
-2 3 2 -28.1093 -1.4511
-2 3 3 -31.5314 0.0688
-2 3 4 -15.7517 1.4189
-2 3 5 2.0426 1.2444
-2 3 6 -2.4021 0.4931
-2 3 7 0.0917 -0.3924
-2 3 8 1.5626 -0.4201
-2 3 9 -0.4839 0.5234
-2 3 10 3.2668 -0.0350
-2 3 11 0.5332 0.1550
-2 3 12 -3.2888 0.7716
-2 3 13 -0.5847 0.1485
-2 3 14 0.7832 -1.0562
-2 3 15 0.4841 -2.4069
-2 4 1 18.4560 -3.2598
-2 4 2 2.8875 -0.8784
-2 4 3 6.8916 0.7749
-2 4 4 3.0224 0.6883
-2 4 5 -0.1344 0.0583
-2 4 6 11.0557 -0.8183
-2 4 7 9.0335 -0.6061
-2 4 8 5.7175 -0.0017
-2 4 9 5.4470 -0.0372
-2 4 10 -1.4331 0.5924
-2 4 11 -1.8196 0.0255
-2 4 12 0.3903 -0.7319
-2 4 13 -1.7164 0.0305
-2 4 14 -2.0944 1.7362
-2 5 1 -2.2825 -1.9922
-2 5 2 -0.2131 0.1255
-2 5 3 -9.4359 1.1405
-2 5 4 -7.3031 0.7871
-2 5 5 -4.0395 -0.3547
-2 5 6 -10.9857 -0.4536
-2 5 7 -4.9188 -0.4841
-2 5 8 -0.9419 -0.4688
-2 5 9 -4.3948 0.0095
-2 5 10 -1.6881 -0.0902
-2 5 11 -1.5986 -0.0811
-2 5 12 -2.1828 -0.8111
-2 5 13 0.2782 -1.8052
-2 5 14 0.6928 -2.2791
-2 6 1 7.6053 -0.8580
-2 6 2 -4.5740 0.2667
-2 6 3 -4.3754 0.4702
-2 6 4 -7.2000 0.8782
-2 6 5 -4.0712 1.3140
-2 6 6 8.0397 0.3883
-2 6 7 4.6099 -0.2259
-2 6 8 1.8034 -0.0819
-2 6 9 8.0906 0.0190
-2 6 10 8.0084 -0.2596
-2 6 11 6.5186 -0.1797
-2 6 12 4.5068 1.6404
-2 6 13 0.7278 2.4455
-2 7 1 -4.4784 -1.8925
-2 7 2 -1.2239 -0.7637
-2 7 3 -2.5568 0.7978
-2 7 4 3.4891 0.8419
-2 7 5 5.1389 -0.1765
-2 7 6 -1.7996 -0.2326
-2 7 7 3.3415 -0.1632
-2 7 8 5.3319 -0.3296
-2 7 9 -3.3474 -0.4722
-2 7 10 -4.5369 0.3469
-2 7 11 -2.3830 -0.0910
-2 7 12 -2.0869 -3.5956
-2 7 13 -1.2582 -4.9993
-2 8 1 3.6457 -1.3902
-2 8 2 -5.2985 -0.5296
-2 8 3 -4.0422 -0.3247
-2 8 4 -6.1123 0.0542
-2 8 5 -4.1209 0.3866
-2 8 6 4.4129 0.0122
-2 8 7 0.6032 -0.2641
-2 8 8 -2.4125 -0.2477
-2 8 9 3.1944 0.3821
-2 8 10 0.4719 -0.4317
-2 8 11 -3.6628 -0.3418
-2 8 12 -0.8400 2.9706
-2 9 1 -4.8164 -3.0195
-2 9 2 -2.0349 -1.1536
-2 9 3 -7.0498 0.5608
-2 9 4 -3.0317 1.5648
-2 9 5 1.4470 1.5407
-2 9 6 -2.0454 0.3288
-2 9 7 2.1942 -0.6879
-2 9 8 5.3187 -0.0079
-2 9 9 0.9101 0.4475
-2 9 10 4.8860 1.8189
-2 9 11 8.3369 1.7028
-2 10 1 -3.9662 -2.3716
-2 10 2 -7.1555 -0.4961
-2 10 3 0.2771 1.4181
-2 10 4 -1.8002 0.7477
-2 10 5 -4.7441 -1.4865
-2 10 6 2.4923 -1.4840
-2 10 7 2.8187 -0.4788
-2 10 8 0.2665 -1.3791
-2 10 9 2.9261 -1.6584
-2 11 1 -1.5148 -1.6391
-2 11 2 -0.9376 0.5630
-2 11 3 -5.2605 0.1473
-2 11 4 4.6680 0.9894
-2 11 5 14.8544 2.9170
-2 11 6 9.1235 1.3371
-2 11 7 5.2391 -1.1035
-2 11 8 4.3680 -0.0103
-2 12 1 -1.3983 0.6474
-2 12 2 -1.4733 -0.5062
-2 12 3 3.5673 0.8684
-2 12 4 -3.2104 0.0874
-2 12 5 -9.4267 -2.9992
-2 12 6 -1.8535 -2.4608
-2 13 1 1.6426 -2.0828
-2 13 2 1.0478 1.1607
-1 -14 1 -6.4171 1.4088
-1 -14 2 -5.1523 -3.3507
-1 -14 3 -8.1416 -2.1244
-1 -14 4 -7.7961 -1.5070
-1 -13 1 10.2920 0.2391
-1 -13 2 7.0804 1.3237
-1 -13 3 8.2246 -1.0987
-1 -13 4 5.7742 -1.1551
-1 -13 5 -6.2217 1.6170
-1 -13 6 -10.3895 1.1244
-1 -13 7 -7.6023 -0.2137
-1 -12 1 1.5375 0.5388
-1 -12 2 -1.9434 -1.4542
-1 -12 3 -9.0028 -0.0239
-1 -12 4 -10.1603 0.2371
-1 -12 5 1.6557 -1.7915
-1 -12 6 8.1122 -1.5492
-1 -12 7 10.0536 -0.1910
-1 -12 8 9.6822 1.2704
-1 -12 9 9.4453 3.6355
-1 -11 1 7.6220 0.0753
-1 -11 2 5.1603 -0.0512
-1 -11 3 3.4779 -1.1138
-1 -11 4 0.9617 -0.8700
-1 -11 5 -7.3666 0.9198
-1 -11 6 -7.1509 1.2198
-1 -11 7 -5.5555 0.2295
-1 -11 8 -3.5097 -1.1163
-1 -11 9 -2.9334 -2.7844
-1 -11 10 -2.3908 -2.7791
-1 -10 1 -2.7142 0.1627
-1 -10 2 -10.7501 -0.0851
-1 -10 3 -12.5108 0.0049
-1 -10 4 -10.6364 -0.2247
-1 -10 5 -1.7869 -0.7529
-1 -10 6 -0.5706 -0.6141
-1 -10 7 1.4746 0.1457
-1 -10 8 1.0486 0.8447
-1 -10 9 0.0194 1.1314
-1 -10 10 1.6183 0.7756
-1 -10 11 1.2752 0.8798
-1 -9 1 14.2156 2.2944
-1 -9 2 12.3636 0.2711
-1 -9 3 0.9764 -1.1417
-1 -9 4 -4.9685 -1.2366
-1 -9 5 -8.9024 -0.4377
-1 -9 6 0.1482 0.3626
-1 -9 7 6.1566 0.2025
-1 -9 8 11.4599 -0.5631
-1 -9 9 14.7068 -0.5951
-1 -9 10 8.8932 -0.0879
-1 -9 11 4.2300 -1.1994
-1 -9 12 2.0874 -3.0873
-1 -8 1 0.5283 1.4863
-1 -8 2 -5.2041 0.2047
-1 -8 3 0.8344 -0.3647
-1 -8 4 1.0830 -0.2965
-1 -8 5 4.4637 -0.1321
-1 -8 6 -3.0163 -0.2724
-1 -8 7 -5.0765 -0.1599
-1 -8 8 -6.0741 0.2979
-1 -8 9 -9.2712 0.0241
-1 -8 10 -2.7551 -0.5576
-1 -8 11 2.0543 0.9547
-1 -8 12 0.7091 3.0070
-1 -8 13 -1.1130 2.5310
-1 -7 1 19.9538 1.2920
-1 -7 2 6.9973 0.0923
-1 -7 3 -14.0995 -0.5625
-1 -7 4 -18.3933 -0.7253
-1 -7 5 -22.2592 -0.1421
-1 -7 6 -9.1191 0.5966
-1 -7 7 0.3502 0.6486
-1 -7 8 4.8710 -0.0672
-1 -7 9 12.3883 -0.2975
-1 -7 10 6.9316 0.2973
-1 -7 11 -1.2274 -0.4116
-1 -7 12 -1.7405 -1.3647
-1 -7 13 -1.6895 -0.9024
-1 -7 14 -4.9377 -0.3029
-1 -6 1 -3.6988 1.4389
-1 -6 2 -2.7868 -0.6241
-1 -6 3 3.6157 -1.4037
-1 -6 4 -3.1788 -0.7212
-1 -6 5 6.6021 -0.1857
-1 -6 6 6.1129 0.0903
-1 -6 7 7.6747 0.2443
-1 -6 8 12.0606 0.4679
-1 -6 9 1.9582 0.4502
-1 -6 10 -2.0772 -0.2592
-1 -6 11 0.3893 -0.1435
-1 -6 12 -2.2873 -0.0944
-1 -6 13 -3.8908 -0.6096
-1 -6 14 1.3615 -0.2475
-1 -5 1 47.9863 -0.2998
-1 -5 2 23.3659 -0.2216
-1 -5 3 -3.2728 -0.1067
-1 -5 4 -3.3821 -0.5675
-1 -5 5 -16.5816 -0.3508
-1 -5 6 -13.0827 -0.0781
-1 -5 7 -6.3627 0.0962
-1 -5 8 -9.2873 0.1909
-1 -5 9 0.8606 0.1815
-1 -5 10 6.2947 0.6486
-1 -5 11 -0.0106 0.5205
-1 -5 12 -2.1105 0.5202
-1 -5 13 0.3197 0.6534
-1 -5 14 -1.7769 -0.2508
-1 -5 15 -2.3461 0.3514
-1 -4 1 -25.8455 0.9304
-1 -4 2 -25.2097 -0.0091
-1 -4 3 -20.7891 -0.6773
-1 -4 4 -37.0431 -0.2471
-1 -4 5 -20.3391 -0.0732
-1 -4 6 -8.7127 0.1477
-1 -4 7 -4.4203 0.2791
-1 -4 8 9.2767 0.1387
-1 -4 9 5.3993 -0.0055
-1 -4 10 -3.2501 -0.5018
-1 -4 11 0.1505 -0.4251
-1 -4 12 3.1218 -0.4159
-1 -4 13 -0.8590 -0.6507
-1 -4 14 -1.8726 -0.3482
-1 -4 15 -0.5019 -2.0427
-1 -3 1 38.2895 0.2693
-1 -3 2 9.0946 -0.1230
-1 -3 3 -14.2912 -0.2684
-1 -3 4 4.5072 -0.6015
-1 -3 5 -1.3787 -0.3094
-1 -3 6 -0.7448 0.1133
-1 -3 7 13.3709 0.2748
-1 -3 8 8.1578 0.0960
-1 -3 9 4.9535 -0.3357
-1 -3 10 5.5120 -0.3227
-1 -3 11 -2.8733 -0.3488
-1 -3 12 -9.5606 -0.1326
-1 -3 13 -3.9552 0.2132
-1 -3 14 2.7454 -0.2679
-1 -3 15 3.5879 0.8058
-1 -3 16 1.7189 1.9395
-1 -2 1 -15.1371 1.7942
-1 -2 2 -9.8421 -0.2063
-1 -2 3 -4.1489 -1.3706
-1 -2 5 -19.9015 0.0756
-1 -2 6 -2.5147 0.7421
-1 -2 7 -12.4079 0.5959
-1 -2 8 -10.9575 0.1219
-1 -2 9 -5.2765 -0.0998
-1 -2 10 -5.4861 0.0456
-1 -2 11 -1.9986 0.6110
-1 -2 12 2.3656 0.7936
-1 -2 13 -2.3123 0.1248
-1 -2 14 -7.5150 -0.0229
-1 -2 15 -4.8134 -0.6655
-1 -2 16 0.4853 -1.2350
-1 -1 1 26.1823 -2.0822
-1 -1 2 6.0662 -2.5055
-1 -1 3 -13.1682 -1.2576
-1 -1 4 11.6863 0.3330
-1 -1 5 1.7589 0.5637
-1 -1 7 7.0486 -0.4153
-1 -1 9 13.9843 -0.0678
-1 -1 10 8.9705 0.3775
-1 -1 11 5.5930 0.3089
-1 -1 12 1.7916 -0.0707
-1 -1 13 4.4313 0.1016
-1 -1 14 8.8053 -0.1772
-1 -1 15 7.7923 -0.7296
-1 -1 16 5.7467 -1.0793
-1 0 1 4.6639 -6.1399
-1 0 2 -8.3709 -3.0398
-1 0 3 -12.9830 -0.5387
-1 0 4 -48.6181 0.3549
-1 0 5 -37.1202 0.8595
-1 0 6 -1.0810 0.3967
-1 0 7 -4.3447 -0.3319
-1 0 8 -8.6857 -0.5145
-1 0 9 1.8964 -0.5974
-1 0 10 3.7531 -0.2749
-1 0 11 -3.7404 -0.0226
-1 0 12 -6.9992 0.1808
-1 0 13 -4.7923 -0.4604
-1 0 14 1.7331 -1.0687
-1 0 15 9.4771 -0.8708
-1 0 16 9.6932 -0.9045
-1 1 1 -6.0815 -1.3779
-1 1 2 -10.1096 -0.5826
-1 1 3 -23.8835 0.1397
-1 1 4 6.9557 0.7632
-1 1 5 14.3164 0.0068
-1 1 6 -1.3277 -0.2690
-1 1 7 13.6121 -0.1107
-1 1 8 21.3020 -0.1613
-1 1 9 6.1959 0.0801
-1 1 10 -1.6641 -0.0273
-1 1 11 3.7137 0.2571
-1 1 12 8.8072 0.1552
-1 1 13 7.1016 0.1603
-1 1 14 -1.3528 0.0458
-1 1 15 -9.8498 -1.0451
-1 1 16 -8.4982 -1.3413
-1 2 1 40.1135 0.7657
-1 2 2 18.0058 0.8325
-1 2 3 19.7447 0.6293
-1 2 4 -9.3101 0.0756
-1 2 5 -17.0910 0.5824
-1 2 6 3.4506 0.3470
-1 2 7 0.0681 -0.1967
-1 2 8 -1.3917 -0.2882
-1 2 9 9.0299 -0.4349
-1 2 10 8.4172 -0.0200
-1 2 11 -1.2801 -0.3892
-1 2 12 -9.4805 -0.2658
-1 2 13 -10.6742 0.1735
-1 2 14 -3.5451 0.5136
-1 2 15 4.5916 1.5853
-1 2 16 4.4827 1.5081
-1 3 1 -1.6263 -3.6264
-1 3 2 -3.5629 -2.6853
-1 3 3 -32.5223 -1.1692
-1 3 4 -21.7170 0.6789
-1 3 5 -7.1566 0.9227
-1 3 6 -10.5755 0.9303
-1 3 7 1.4942 0.4524
-1 3 8 4.9795 -0.3108
-1 3 9 -2.7850 -0.4063
-1 3 10 -3.0330 -0.5225
-1 3 11 -1.5548 0.6078
-1 3 12 1.4278 0.8443
-1 3 13 5.3050 -0.0673
-1 3 14 4.4975 -1.0513
-1 3 15 2.0007 -2.3618
-1 4 1 10.1214 -6.7702
-1 4 2 -14.8744 -4.6848
-1 4 3 0.6616 -1.7367
-1 4 4 -4.9872 0.0175
-1 4 5 -10.3187 1.0380
-1 4 6 2.0482 0.4227
-1 4 7 1.8796 -0.3000
-1 4 8 6.4420 -0.4485
-1 4 9 11.7579 -0.1679
-1 4 10 5.9280 0.9659
-1 4 11 3.1862 0.5691
-1 4 12 -0.7663 0.0273
-1 4 13 -7.3952 -0.3165
-1 4 14 -7.9316 -0.5678
-1 4 15 -4.7444 0.4107
-1 5 1 5.7969 -4.6078
-1 5 2 12.3453 -2.8910
-1 5 3 -12.7453 -0.9143
-1 5 4 -10.6628 0.9117
-1 5 5 0.8453 1.1499
-1 5 6 1.1518 0.8064
-1 5 7 8.6049 -0.1824
-1 5 8 3.8293 -0.6125
-1 5 9 -4.5052 -0.3182
-1 5 10 -2.4967 -0.6898
-1 5 11 -4.4564 -0.4271
-1 5 12 -2.5025 -0.4990
-1 5 13 5.0434 0.0456
-1 5 14 6.4257 1.1861
-1 5 15 3.3491 0.8102
-1 6 1 10.0759 -4.8262
-1 6 2 -6.4001 -1.5578
-1 6 3 4.3475 0.8515
-1 6 4 -2.7269 1.4427
-1 6 5 -10.5975 0.8479
-1 6 6 -5.4480 -0.4812
-1 6 7 -6.8894 -0.5993
-1 6 8 0.8995 -0.3230
-1 6 9 7.7067 -0.1784
-1 6 10 0.9809 0.4097
-1 6 11 -0.2962 0.5430
-1 6 12 -1.0557 0.9928
-1 6 13 -5.1170 0.0390
-1 6 14 -4.0810 -1.5824
-1 7 1 7.7601 -2.3530
-1 7 2 4.5536 -0.5529
-1 7 3 -14.9408 0.7546
-1 7 4 -10.3948 0.8694
-1 7 5 1.1384 0.4149
-1 7 6 4.1208 0.3142
-1 7 7 10.8998 -0.4891
-1 7 8 4.7057 -0.7388
-1 7 9 -3.4806 -0.2414
-1 7 10 2.7852 0.1365
-1 7 11 4.4886 -0.1902
-1 7 12 2.5049 -1.9290
-1 7 13 3.0897 -1.8493
-1 8 1 1.1166 -1.3229
-1 8 2 -6.9928 -0.6407
-1 8 3 1.7777 0.1040
-1 8 4 -2.1641 1.1137
-1 8 5 -6.3365 1.3270
-1 8 6 -2.2281 0.4279
-1 8 7 -4.0376 0.0715
-1 8 8 2.4634 -0.3346
-1 8 9 9.7906 -0.5536
-1 8 10 1.7119 -0.5563
-1 8 11 -2.2003 0.4501
-1 8 12 0.8575 2.7657
-1 8 13 0.9695 2.4210
-1 9 1 3.2682 -3.3685
-1 9 2 2.6196 -2.7444
-1 9 3 -8.0580 -1.4350
-1 9 4 -4.7854 -0.3956
-1 9 5 2.0307 0.1813
-1 9 6 3.3188 0.2259
-1 9 7 9.2733 -0.1860
-1 9 8 5.1516 0.2912
-1 9 9 -5.3844 0.7855
-1 9 10 -2.4930 1.3750
-1 9 11 -0.5880 0.5775
-1 9 12 -4.3539 -2.0279
-1 10 1 0.5471 -4.1219
-1 10 2 -7.3712 -2.4133
-1 10 3 -4.8061 -0.6371
-1 10 4 -5.9362 -0.1642
-1 10 5 -4.6552 -0.4484
-1 10 6 0.5942 -0.4679
-1 10 7 -4.0998 -1.0394
-1 10 8 -3.9028 -2.4527
-1 10 9 5.6152 -2.2094
-1 10 10 4.5173 -1.5529
-1 10 11 1.8919 -0.3998
-1 11 1 -5.0707 -4.0248
-1 11 2 -5.2050 -2.3005
-1 11 3 -8.1259 -0.5448
-1 11 4 -6.8620 1.9207
-1 11 5 -7.1331 2.5431
-1 11 6 -7.3753 0.3274
-1 11 7 6.0853 -0.4092
-1 11 8 14.5192 1.2888
-1 11 9 5.1895 1.2313
-1 12 1 3.7301 -3.3537
-1 12 2 1.2010 -1.1607
-1 12 3 0.6031 1.6176
-1 12 4 3.6069 0.9268
-1 12 5 14.4863 -0.1584
-1 12 6 23.2375 1.1305
-1 12 7 10.4181 0.1086
-1 13 1 -6.1586 -0.8861
-1 13 2 -6.7649 -0.4440
-1 13 3 -3.3960 -2.1612
-1 13 4 -1.6708 -0.6873
-1 13 5 -8.8680 0.6880
0 -14 1 0.2343 0.3619
0 -14 2 5.3310 1.1181
0 -14 3 -2.1901 3.1160
0 -13 1 0.8775 4.4672
0 -13 2 -8.8052 2.2826
0 -13 3 -4.0205 -1.5620
0 -13 4 -1.5930 -1.1744
0 -13 5 -6.6329 -0.5451
0 -13 6 -2.3978 -2.3146
0 -12 1 2.3359 2.3593
0 -12 2 10.2890 0.2735
0 -12 3 3.5601 -0.1343
0 -12 4 -1.1915 -1.4113
0 -12 5 2.7295 -1.1089
0 -12 6 -2.3176 1.3350
0 -12 7 -3.7410 -0.2185
0 -12 8 1.3561 -3.4521
0 -12 9 3.6701 -3.3799
0 -11 1 13.1121 1.2949
0 -11 2 0.5310 -0.2912
0 -11 3 -1.7942 -1.1284
0 -11 4 -2.9222 -0.4764
0 -11 5 -8.1598 -0.2767
0 -11 6 -0.3798 -1.3936
0 -11 7 4.6540 -0.1131
0 -11 8 3.4877 2.3388
0 -11 9 3.3342 2.1868
0 -11 10 4.2318 0.3568
0 -10 1 1.0802 1.1640
0 -10 2 8.0746 0.5174
0 -10 3 2.5560 -0.6011
0 -10 4 -5.3959 -1.2170
0 -10 5 -3.0923 -0.8388
0 -10 6 -6.4106 0.2608
0 -10 7 -4.3055 0.1619
0 -10 8 -0.0928 -1.0769
0 -10 9 0.0403 -1.3801
0 -10 10 -1.2816 -0.2085
0 -10 11 -1.2096 1.7241
0 -9 1 8.6852 1.5809
0 -9 2 -8.8764 0.2181
0 -9 3 -13.2181 -0.0397
0 -9 4 -7.1350 -0.2901
0 -9 5 -8.3694 -0.3604
0 -9 6 -2.7861 -0.1533
0 -9 7 -1.1041 -0.1031
0 -9 8 0.3634 0.1587
0 -9 9 3.1222 0.6037
0 -9 10 2.9001 0.2552
0 -9 11 2.4250 -0.8929
0 -9 12 0.5099 -1.2012
0 -8 1 11.3698 3.0071
0 -8 2 20.4043 2.3310
0 -8 3 11.5891 0.6043
0 -8 4 -6.2945 -0.2105
0 -8 5 -4.6724 -0.2266
0 -8 6 -2.0406 0.0038
0 -8 7 4.7907 0.8939
0 -8 8 6.7870 1.2230
0 -8 9 3.5473 -0.0132
0 -8 10 3.3192 -0.9671
0 -8 11 0.8625 -0.4957
0 -8 12 0.1175 -0.1589
0 -8 13 1.5075 0.2190
0 -7 1 19.4552 5.6643
0 -7 2 0.5448 3.0333
0 -7 3 -3.4395 0.8048
0 -7 4 3.9764 -0.6324
0 -7 5 -6.8947 -0.6902
0 -7 6 -10.1520 -0.0501
0 -7 7 -11.3652 -0.2960
0 -7 8 -6.7253 -0.7693
0 -7 9 2.7294 0.0059
0 -7 10 4.2337 0.8907
0 -7 11 5.8177 0.8135
0 -7 12 5.7734 1.0584
0 -7 13 1.4345 0.3509
0 -7 14 -1.4880 -1.9372
0 -6 1 5.0398 3.7732
0 -6 2 5.1424 1.6035
0 -6 3 -9.1815 0.0905
0 -6 4 -25.8114 -0.4493
0 -6 5 -10.7962 -0.7772
0 -6 6 -2.0108 -0.6533
0 -6 7 6.1638 0.1460
0 -6 8 11.1710 0.8027
0 -6 9 4.4961 0.3907
0 -6 10 1.2076 -0.2311
0 -6 11 -3.2815 -0.1614
0 -6 12 -8.2033 -0.7585
0 -6 13 -6.8313 -0.5119
0 -6 14 -3.2369 1.0552
0 -6 15 -3.5705 0.3800
0 -5 1 29.0025 2.7494
0 -5 2 24.0036 0.6831
0 -5 3 23.3853 -1.0289
0 -5 4 20.8191 -1.5932
0 -5 5 -8.9981 -0.4915
0 -5 6 -12.5197 0.5801
0 -5 7 -5.8635 0.8879
0 -5 8 -4.6851 0.5340
0 -5 9 3.9068 0.0182
0 -5 10 4.4366 -0.3486
0 -5 11 0.2727 -0.7542
0 -5 12 0.2608 -0.0234
0 -5 13 -0.2184 0.1329
0 -5 14 -2.2135 -0.7120
0 -5 15 -0.1356 1.2177
0 -4 1 29.2159 1.3514
0 -4 2 7.8521 -0.0504
0 -4 3 -20.8007 -0.6025
0 -4 4 -35.2010 -0.5861
0 -4 5 -3.4937 -0.8901
0 -4 6 3.4512 -0.5963
0 -4 7 -2.3299 -0.2275
0 -4 8 4.1659 0.0141
0 -4 9 -0.0166 0.3983
0 -4 10 -2.0824 0.5432
0 -4 11 2.4614 0.7041
0 -4 12 1.2391 0.1648
0 -4 13 -2.1352 0.3813
0 -4 14 0.3272 1.5519
0 -4 15 2.1017 -0.3539
0 -4 16 1.8821 -2.2718
0 -3 1 16.1458 1.4080
0 -3 2 18.7488 0.7133
0 -3 3 21.6734 0.1340
0 -3 4 13.4057 -0.0135
0 -3 5 -36.0204 0.4569
0 -3 6 -40.9701 0.2712
0 -3 7 -13.0866 0.0845
0 -3 8 -2.6798 0.1212
0 -3 9 8.2903 -0.1383
0 -3 10 12.2413 -0.1864
0 -3 11 2.5861 -0.1420
0 -3 12 -1.4557 0.4618
0 -3 13 2.4348 0.4630
0 -3 14 0.1708 -0.9011
0 -3 15 -3.6116 -0.2629
0 -3 16 -2.1861 0.5362
0 -2 1 22.7834 0.5231
0 -2 2 -8.8452 1.5329
0 -2 3 -42.6858 1.3004
0 -2 4 -57.3025 0.2900
0 -2 5 -3.7075 -0.5288
0 -2 6 22.3906 -0.0002
0 -2 7 8.3984 0.6810
0 -2 8 8.2569 0.6367
0 -2 9 2.8158 0.3374
0 -2 10 -8.2368 -0.0234
0 -2 11 -8.6078 0.0664
0 -2 12 -8.8137 0.0628
0 -2 13 -12.2391 -0.1457
0 -2 14 -4.1852 0.3460
0 -2 15 7.5543 -0.3000
0 -2 16 7.6759 -0.9009
0 -1 1 6.5913 5.9095
0 -1 2 10.7463 1.7380
0 -1 3 19.2568 -0.9576
0 -1 4 30.8230 -1.3829
0 -1 5 -17.1141 -0.4927
0 -1 6 -38.3158 0.1021
0 -1 7 -10.5703 0.1053
0 -1 8 -0.8907 -0.0673
0 -1 9 2.4895 -0.1841
0 -1 10 12.6201 -0.0903
0 -1 11 13.0819 -0.0445
0 -1 12 8.3333 0.0965
0 -1 13 5.9754 0.7817
0 -1 14 -4.7042 0.6817
0 0 1 30.3774 -1.6284
0 0 2 13.1314 -3.2155
0 0 3 -10.2557 -3.0040
0 0 4 -45.5925 -1.5414
0 0 5 -12.4524 -0.0005
0 0 6 17.4178 0.5473
0 0 7 2.1116 0.3747
0 0 8 2.2214 -0.0651
0 0 9 7.2969 -0.4439
0 0 10 -4.4359 -0.3061
0 0 11 -11.9030 0.1575
0 0 12 -7.8256 0.5676
0 0 13 -0.9570 -0.2182
0 0 14 13.1871 -0.7201
0 0 15 26.1863 -0.2026
0 0 16 20.2130 0.1805
0 1 0 -12.9363 -9.6816
0 1 1 5.1812 -9.1801
0 1 2 -1.6521 -5.0757
0 1 3 -14.3888 -1.5068
0 1 4 3.9417 0.2643
0 1 7 -11.2022 0.1015
0 1 8 4.2785 -0.3794
0 1 9 4.7576 -0.1540
0 1 10 13.6372 0.1160
0 1 11 13.6529 0.3196
0 1 12 1.2407 -0.0229
0 1 13 -7.1753 0.3540
0 1 14 -12.0686 0.5169
0 1 15 -13.9818 -0.5983
0 1 16 -4.8903 -1.3406
0 2 0 53.1226 1.3093
0 2 1 22.1673 0.9514
0 2 2 4.5476 -0.3391
0 2 3 4.0181 0.0163
0 2 4 -23.7665 1.1074
0 2 5 -5.5810 1.7714
0 2 6 23.9809 0.7848
0 2 7 14.1054 -0.0239
0 2 8 11.3313 -0.2202
0 2 9 12.5969 -0.6071
0 2 10 -0.1593 -0.5146
0 2 11 -4.5593 -0.3667
0 2 12 3.7558 0.4558
0 2 13 8.0425 0.5246
0 2 14 6.9238 0.1977
0 2 15 4.3391 0.5371
0 2 16 -2.7246 0.1478
0 3 0 2.7650 -2.1620
0 3 1 32.9732 -1.0256
0 3 2 33.4314 0.4086
0 3 3 1.0860 0.6255
0 3 4 5.9842 0.4490
0 3 5 -6.8326 0.0449
0 3 6 -22.6657 0.4725
0 3 7 -5.6355 0.2772
0 3 8 0.5833 -0.2421
0 3 9 -0.0461 -0.0473
0 3 10 6.6473 -0.0417
0 3 11 2.5665 0.3004
0 3 12 -7.4937 -0.0523
0 3 13 -9.4623 -0.0019
0 3 14 -5.8719 0.2332
0 3 15 -2.0274 0.0723
0 3 16 3.1736 1.0764
0 4 0 48.7161 -2.5337
0 4 1 11.1702 -3.6148
0 4 2 -11.7743 -3.2621
0 4 3 -1.1621 -2.0570
0 4 4 -20.0563 -1.0874
0 4 5 -18.2250 0.1345
0 4 6 -0.4034 0.3930
0 4 7 -1.0524 0.5259
0 4 8 6.4904 0.2316
0 4 9 8.7865 -0.5259
0 4 10 -1.0643 -0.3431
0 4 11 -1.3175 -0.2339
0 4 12 0.4797 0.2857
0 4 13 -1.5358 -0.0741
0 4 14 -0.9269 -0.6451
0 4 15 1.6899 -0.7750
0 4 16 1.7495 -2.1696
0 5 0 13.5415 -4.6333
0 5 2 17.5036 -5.7156
0 5 3 -15.9716 -3.7979
0 5 4 -8.1387 -0.6576
0 5 5 -2.3796 0.8393
0 5 6 -4.9770 0.9793
0 5 7 4.6336 -0.0839
0 5 8 1.4360 -0.6624
0 5 9 1.6873 -0.2832
0 5 10 8.5735 -0.0751
0 5 11 3.0033 0.4773
0 5 12 0.3212 0.1744
0 5 13 2.4111 0.2308
0 5 14 0.1223 -0.0651
0 5 15 -2.0101 -0.5862
0 6 0 18.5982 -6.0723
0 6 1 4.7315 -6.9572
0 6 2 -0.9105 -4.9070
0 6 3 10.5902 -2.4113
0 6 4 -8.4276 -0.6583
0 6 5 -14.8625 0.6801
0 6 6 -5.0680 0.7536
0 6 7 -2.5987 0.3695
0 6 8 7.9476 -0.4302
0 6 9 6.9066 -0.6840
0 6 10 -4.5020 0.0027
0 6 11 -3.2632 0.3455
0 6 12 -4.0099 1.0587
0 6 13 -5.4598 0.5531
0 6 14 0.1103 0.5340
0 6 15 2.5645 1.5759
0 7 0 14.1742 -6.3391
0 7 1 16.4391 -4.7236
0 7 2 7.8948 -2.8109
0 7 3 -11.7414 -0.4816
0 7 4 -1.0799 1.1384
0 7 5 3.8103 1.3785
0 7 6 -0.0042 0.8945
0 7 7 4.5160 -0.1450
0 7 8 -1.5789 -0.3852
0 7 9 -2.2943 -0.4152
0 7 10 4.2491 -0.3425
0 7 11 -0.1358 -0.1034
0 7 12 0.5948 -1.2100
0 7 13 4.1068 -1.1093
0 7 14 0.9099 -1.1660
0 8 0 17.3434 -3.2019
0 8 1 10.1498 -2.9821
0 8 2 2.6171 -1.3168
0 8 3 3.5580 0.5030
0 8 4 -12.1274 1.7488
0 8 5 -13.5538 1.3499
0 8 6 -2.9167 0.0162
0 8 7 -1.1588 -0.6044
0 8 8 6.3457 -0.9447
0 8 9 7.5911 -0.2408
0 8 10 -0.2813 0.1840
0 8 11 1.2595 0.0328
0 8 12 0.2705 1.1923
0 8 13 -2.8128 0.7346
0 9 0 4.5681 -2.6306
0 9 1 1.6351 -2.2215
0 9 2 -3.0446 -1.2401
0 9 3 -14.2673 -0.4061
0 9 4 -7.1037 -0.4081
0 9 5 -2.3341 0.1588
0 9 6 -2.5088 0.7058
0 9 7 5.0236 0.4514
0 9 8 3.3659 0.3067
0 9 9 -0.2544 -0.7269
0 9 10 3.4507 -0.5027
0 9 11 0.7691 1.0438
0 9 12 0.1432 0.8491
0 9 13 3.1604 1.2174
0 10 0 7.8752 -1.4826
0 10 1 8.3319 -1.9796
0 10 2 3.7838 -2.3549
0 10 3 7.3760 -1.8252
0 10 4 2.0440 -0.0760
0 10 5 -0.0289 0.6185
0 10 6 3.8594 0.3066
0 10 7 0.6617 -0.6750
0 10 8 2.2106 -1.7343
0 10 9 5.3230 -0.0489
0 10 10 -0.7939 1.2451
0 10 11 -2.1035 0.3696
0 10 12 -1.2989 -0.0224
0 11 0 8.2275 -3.0497
0 11 1 0.7889 -4.2846
0 11 2 -2.3676 -4.0264
0 11 3 -11.7153 -2.6587
0 11 4 -11.6051 -1.4056
0 11 5 -7.1360 -0.2187
0 11 6 -5.7746 0.0866
0 11 7 0.1610 0.7525
0 11 8 0.9070 1.5022
0 11 9 -3.0684 -0.8778
0 11 10 1.7365 -2.6508
0 12 0 3.7067 -5.1176
0 12 1 5.3141 -5.5046
0 12 2 -1.6670 -3.3769
0 12 3 -2.6488 -0.7011
0 12 4 -4.4601 0.4844
0 12 5 -5.4142 0.0356
0 12 6 0.9227 -0.5702
0 12 7 5.0916 -2.6111
0 12 8 9.7053 -4.4055
0 12 9 13.7683 -1.9963
0 13 0 1.4474 -3.2779
0 13 1 -3.7589 -2.0578
0 13 2 -1.8187 -2.1667
0 13 3 -2.9702 -1.8976
0 13 4 -2.1066 0.7423
0 13 5 3.0379 3.3430
0 13 6 4.5771 3.3228
0 13 7 5.1966 3.5441
0 14 0 -0.7927 -2.4398
0 14 1 1.3638 -3.0639
0 14 2 -3.7605 -0.3353
0 14 3 -4.3867 2.6191
1 -13 0 2.0249 3.6235
1 -13 1 4.0447 4.4408
1 -13 2 -1.0468 3.9379
1 -13 3 0.7908 2.4165
1 -13 4 -2.3956 0.8572
1 -13 5 -5.1528 -0.7982
1 -12 0 -0.9831 3.4355
1 -12 1 -3.0572 3.6126
1 -12 2 0.9208 2.6299
1 -12 3 -3.5408 1.0034
1 -12 4 -0.4259 -0.4620
1 -12 5 4.2540 -0.8469
1 -12 6 -1.7931 -0.4911
1 -12 7 -1.6396 -1.3598
1 -12 8 1.1179 0.0238
1 -11 0 0.9678 5.4315
1 -11 1 4.9508 4.1712
1 -11 2 -0.0007 2.1627
1 -11 3 2.4569 0.3666
1 -11 4 -3.8402 -0.8035
1 -11 5 -11.3412 -0.7107
1 -11 6 -4.2039 -0.1764
1 -11 7 -2.2541 0.8529
1 -11 8 -1.9788 -0.5326
1 -11 9 3.0501 -3.4726
1 -11 10 3.5588 -2.7810
1 -10 0 5.3680 4.1587
1 -10 1 5.8211 3.6557
1 -10 2 9.8620 1.7585
1 -10 3 1.3352 -0.3021
1 -10 4 0.9744 -0.7050
1 -10 5 5.9020 -0.8350
1 -10 6 -0.6881 -0.7825
1 -10 7 1.0920 -0.7996
1 -10 8 4.4791 0.1314
1 -10 9 1.6306 1.7173
1 -10 10 1.8423 0.7033
1 -10 11 3.9984 -2.2101
1 -9 0 4.8807 3.3329
1 -9 1 9.4051 1.5730
1 -9 2 2.3768 0.1787
1 -9 3 3.2391 -0.3194
1 -9 4 -4.4305 -1.4047
1 -9 5 -15.0146 -1.2883
1 -9 6 -7.0769 -0.3335
1 -9 7 -3.3438 0.2210
1 -9 8 -1.4339 0.0385
1 -9 9 2.6880 -0.7629
1 -9 10 0.4687 -0.4046
1 -9 11 -3.2879 1.5773
1 -9 12 -2.4987 2.3126
1 -8 0 7.4574 1.4343
1 -8 1 1.5049 2.1159
1 -8 2 3.7933 1.8191
1 -8 3 -5.1456 0.3749
1 -8 4 -5.6546 0.2525
1 -8 5 2.2817 0.1391
1 -8 6 -5.3815 -0.1325
1 -8 7 -5.6028 0.2508
1 -8 8 -1.9739 0.4702
1 -8 9 -1.5245 0.4685
1 -8 10 1.5184 0.3374
1 -8 11 2.2313 -0.5553
1 -8 12 0.5960 -0.9509
1 -8 13 -0.8652 -0.2114
1 -7 0 13.0730 4.3638
1 -7 1 28.7052 4.4546
1 -7 2 20.2767 3.5814
1 -7 3 13.8177 2.7096
1 -7 4 0.5405 0.7714
1 -7 5 -14.8268 -0.3522
1 -7 6 -2.8609 -0.1711
1 -7 7 5.5603 0.1530
1 -7 8 6.1772 0.6497
1 -7 9 6.0545 0.7911
1 -7 10 1.7372 -0.0629
1 -7 11 1.2044 -0.4485
1 -7 12 1.7168 0.2104
1 -7 13 0.8288 1.1571
1 -7 14 1.6784 2.7582
1 -6 0 17.9291 6.4654
1 -6 1 -2.5418 6.6857
1 -6 2 -2.1845 4.9050
1 -6 3 -5.2928 1.9907
1 -6 4 -2.7157 0.4413
1 -6 5 6.7242 -0.0478
1 -6 6 -9.3079 0.0243
1 -6 7 -15.7758 0.2869
1 -6 8 -8.6033 0.0025
1 -6 9 -2.6840 -0.4236
1 -6 10 4.3714 0.1097
1 -6 11 3.5084 0.8265
1 -6 12 -0.2563 0.5888
1 -6 13 -0.2197 -0.2803
1 -6 14 -1.4912 -2.4085
1 -6 15 -4.4030 -4.2414
1 -5 0 7.7220 6.2010
1 -5 1 38.4555 5.9374
1 -5 2 29.8713 4.3804
1 -5 3 12.7972 2.1573
1 -5 4 -7.0526 -0.1341
1 -5 5 -26.9288 -1.1653
1 -5 6 -8.2493 -1.1630
1 -5 7 6.4849 -0.4478
1 -5 8 6.4237 0.5044
1 -5 9 7.8097 1.0486
1 -5 10 0.9499 0.6857
1 -5 11 -3.8455 -0.1577
1 -5 12 -3.3133 -0.5017
1 -5 13 -5.0884 -0.7429
1 -5 14 -4.7727 0.0699
1 -5 15 0.3737 1.6852
1 -4 0 22.1254 6.3357
1 -4 1 -9.5218 4.5180
1 -4 2 -3.7080 1.7124
1 -4 3 5.4344 -0.3856
1 -4 4 8.7967 -1.2730
1 -4 5 16.9354 -1.4357
1 -4 6 -5.5131 -0.5857
1 -4 7 -13.2660 0.2113
1 -4 8 -1.2964 0.4514
1 -4 9 -0.9635 0.1234
1 -4 10 2.7768 -0.4952
1 -4 11 5.3144 -0.5816
1 -4 12 -1.5676 -0.2975
1 -4 13 -4.3620 0.6975
1 -4 14 -1.3091 1.1958
1 -4 15 -1.4058 0.2296
1 -4 16 -1.5066 1.0347
1 -3 0 14.1834 3.5688
1 -3 1 62.7835 1.8947
1 -3 2 47.4936 0.3840
1 -3 3 15.2674 -0.8802
1 -3 4 -4.6120 -1.1109
1 -3 5 -23.0886 -0.1939
1 -3 6 -2.4248 0.3165
1 -3 7 7.1609 0.4800
1 -3 8 -4.7474 0.2084
1 -3 9 1.5708 -0.1254
1 -3 10 4.1590 0.0605
1 -3 11 -0.6282 -0.0326
1 -3 12 4.8938 -0.1925
1 -3 13 8.6614 -0.4645
1 -3 14 2.8020 -0.3144
1 -3 15 0.4399 1.1088
1 -3 16 2.4795 0.4810
1 -2 0 44.4613 -0.1625
1 -2 1 3.3018 1.0389
1 -2 2 10.6622 1.2784
1 -2 3 16.1136 1.3404
1 -2 4 -3.1887 0.9836
1 -2 5 -10.7033 0.2313
1 -2 6 -37.6066 0.0021
1 -2 7 -37.0500 -0.0670
1 -2 8 -2.9741 0.2516
1 -2 9 3.2873 0.5806
1 -2 10 -1.5141 0.2190
1 -2 11 0.3012 0.1979
1 -2 12 -7.6061 0.5122
1 -2 13 -13.9521 0.8432
1 -2 15 0.3691 0.1332
1 -2 16 -1.7906 0.4390
1 -1 0 0.7776 2.1281
1 -1 1 30.8052 2.7598
1 -1 2 -1.0652 3.4292
1 -1 3 -31.2377 2.6788
1 -1 4 -26.4960 1.2606
1 -1 5 -27.8441 0.0845
1 -1 6 2.9990 -0.4022
1 -1 7 20.8781 0.0629
1 -1 8 0.2809 0.2414
1 -1 9 1.8676 -0.1299
1 -1 10 13.3388 -0.0952
1 -1 11 7.3498 0.0749
1 -1 12 3.9611 0.4019
1 -1 13 5.2078 0.9471
1 -1 14 -0.5087 0.6098
1 -1 15 -1.0468 0.1331
1 -1 16 7.0847 -1.0266
1 -1 17 9.2259 -2.5070
1 0 0 21.3184 7.6221
1 0 1 5.9131 5.8538
1 0 2 26.5037 2.1289
1 0 3 29.6382 -0.5073
1 0 4 1.8296 -1.6165
1 0 5 3.8181 -1.0464
1 0 6 -12.5545 0.0622
1 0 7 -22.0879 0.3904
1 0 8 7.3355 0.3532
1 0 9 12.5581 0.3230
1 0 10 -4.2097 -0.0007
1 0 11 -4.6657 -0.2717
1 0 12 -1.2168 -0.2735
1 0 13 -3.6812 -0.5956
1 0 14 -2.6097 -0.2083
1 0 15 -4.3120 0.3655
1 0 16 -10.2104 0.7056
1 0 17 -6.3214 1.1623
1 1 0 23.2387 0.3990
1 1 3 -6.7522 -2.9754
1 1 4 4.6348 -2.0975
1 1 5 -19.2266 -0.5746
1 1 6 -17.0160 0.4331
1 1 7 1.6442 0.6597
1 1 8 -13.0652 0.1694
1 1 9 -12.8142 -0.4628
1 1 10 6.4963 -0.5127
1 1 11 6.0496 0.0486
1 1 12 -3.2021 0.2411
1 1 13 -2.7616 0.5449
1 1 14 1.9422 0.2629
1 1 15 10.3955 -0.0032
1 1 17 14.0470 1.2163
1 2 0 8.2702 -3.7031
1 2 1 6.9620 -5.4806
1 2 2 17.1002 -4.6049
1 2 3 3.4487 -1.5067
1 2 4 -32.7995 0.0560
1 2 5 -16.4829 0.3387
1 2 6 -6.6194 0.1526
1 2 7 -12.6651 0.0349
1 2 8 11.6079 -0.1013
1 2 9 21.6600 -0.1554
1 2 10 5.8374 0.0002
1 2 11 0.6489 -0.1027
1 2 12 3.0199 0.4064
1 2 13 0.7510 0.6496
1 2 14 -0.7479 0.8605
1 2 15 -2.4171 0.5848
1 2 16 -6.5182 -1.1282
1 2 17 -3.2121 -2.1223
1 3 0 28.5261 -1.1906
1 3 1 29.5146 -0.9474
1 3 2 10.8322 -1.0198
1 3 3 4.8205 -1.3584
1 3 4 23.6695 -0.0306
1 3 5 0.2560 1.2569
1 3 6 -11.6150 1.5034
1 3 7 3.8628 0.6230
1 3 8 -2.4843 -0.0734
1 3 9 -3.1329 -0.2655
1 3 10 8.5342 -0.4332
1 3 11 6.7380 0.0631
1 3 12 1.3644 0.0132
1 3 13 0.5961 -0.0042
1 3 14 -2.0158 -0.1512
1 3 15 -4.5542 0.1674
1 3 16 -2.6200 1.8367
1 4 0 9.5487 -0.6955
1 4 1 18.9652 -0.6394
1 4 2 26.6774 -0.1058
1 4 3 14.0247 0.6765
1 4 4 -25.8798 0.6542
1 4 5 -18.6243 0.7888
1 4 6 -2.3995 0.7200
1 4 7 -3.1347 0.7088
1 4 8 8.8960 0.2241
1 4 9 8.2515 -0.2596
1 4 10 -2.5516 -0.0211
1 4 11 -2.3672 -0.2689
1 4 12 -4.0869 -0.1108
1 4 13 -6.2021 -0.0095
1 4 14 -1.3942 0.4069
1 4 15 3.3824 0.1959
1 4 16 2.5609 -1.4647
1 5 0 31.7200 -0.9574
1 5 1 27.6897 -2.0712
1 5 2 11.6817 -2.4018
1 5 3 1.9567 -1.6169
1 5 4 20.4634 -0.5970
1 5 5 7.1268 -0.5027
1 5 6 -9.0286 -0.1583
1 5 7 -5.3890 -0.0132
1 5 8 -6.7855 0.0567
1 5 9 2.7178 -0.1535
1 5 10 9.4880 -0.6308
1 5 11 1.2552 -0.0433
1 5 12 1.3945 0.3982
1 5 13 2.9657 0.6124
1 5 14 -1.5654 -0.4131
1 5 15 -2.5253 -0.9190
1 6 0 23.2446 -3.2240
1 6 1 20.1113 -4.2329
1 6 2 11.9277 -4.4889
1 6 3 -2.9512 -4.4971
1 6 4 -36.1067 -3.0730
1 6 5 -30.1750 -0.3976
1 6 6 -9.5314 0.7817
1 6 7 -0.5935 0.5971
1 6 8 8.6151 -0.2044
1 6 9 1.2135 -0.5432
1 6 10 -3.9409 -0.2443
1 6 11 2.9342 -0.1640
1 6 12 -2.5148 0.2673
1 6 13 -5.3020 0.0082
1 6 14 1.4076 0.7261
1 6 15 3.1610 1.1460
1 7 0 1.8879 -2.8542
1 7 1 4.4393 -4.4934
1 7 2 5.5078 -4.9828
1 7 3 5.6760 -2.9584
1 7 4 21.4319 -0.6353
1 7 5 10.5088 0.2803
1 7 6 -3.4905 0.5021
1 7 7 -1.2609 0.0094
1 7 8 -0.1781 -0.4891
1 7 9 9.7666 -0.6137
1 7 10 10.4141 0.2268
1 7 11 -1.8229 1.1304
1 7 12 0.9525 0.5318
1 7 13 2.7890 0.4874
1 7 14 -2.2098 -0.6992
1 7 15 -0.4120 -1.7961
1 8 0 27.7686 -3.4136
1 8 1 25.1295 -4.0995
1 8 2 13.8434 -2.8238
1 8 3 2.4138 -1.1722
1 8 4 -18.3507 0.4422
1 8 5 -11.0634 1.3673
1 8 6 2.8901 1.2584
1 8 7 3.4008 0.5277
1 8 8 4.5053 -0.4614
1 8 9 -3.7484 -0.6864
1 8 10 -7.7042 -1.1907
1 8 11 -1.1449 -1.0374
1 8 12 -4.9104 0.7073
1 8 13 -3.7496 0.3460
1 8 14 4.1316 0.3493
1 9 0 -3.3780 -3.0519
1 9 1 -1.0260 -2.5650
1 9 2 0.1347 -1.5498
1 9 3 -5.4158 -0.3841
1 9 4 0.7993 0.5012
1 9 5 -6.5792 1.1961
1 9 6 -13.1754 0.7016
1 9 7 -5.3522 0.0579
1 9 8 -1.2866 0.2666
1 9 9 4.1717 -0.1221
1 9 10 5.6454 0.4842
1 9 11 -0.9207 0.7124
1 9 12 1.8195 -1.0016
1 9 13 2.8275 -0.1251
1 10 0 14.5278 -0.7648
1 10 1 7.8497 -1.2199
1 10 2 -1.5357 -1.2777
1 10 3 -2.8672 -0.2415
1 10 4 -13.1192 0.7181
1 10 5 -9.7031 0.1870
1 10 6 2.2186 0.3056
1 10 7 5.1473 -0.0721
1 10 8 7.6634 -1.3957
1 10 9 5.4177 -0.5018
1 10 10 0.1697 0.2073
1 10 11 1.3096 1.0182
1 10 12 -0.9036 3.4410
1 11 0 1.3217 -0.5286
1 11 1 7.9872 -1.4447
1 11 2 10.6278 -1.3336
1 11 3 1.3557 -1.6026
1 11 4 4.8620 -1.4591
1 11 5 7.1990 0.1898
1 11 6 1.6527 0.0435
1 11 7 0.9930 0.0204
1 11 8 -0.1983 1.1419
1 11 9 -0.8346 -0.2239
1 11 10 2.3462 -0.7696
1 11 11 0.1677 -0.4083
1 12 0 10.0197 -2.3761
1 12 1 4.1470 -2.4205
1 12 2 -4.1538 -3.1969
1 12 3 0.1292 -2.7094
1 12 4 -3.7551 -1.4080
1 12 5 -9.4221 -1.0423
1 12 6 -5.1668 0.6501
1 12 7 -2.1467 0.4688
1 12 8 0.5356 -2.0366
1 12 9 3.6488 -1.6536
1 12 10 0.4177 -1.4734
1 13 0 4.2278 -0.8500
1 13 1 5.1340 -4.4609
1 13 2 8.4744 -4.9331
1 13 3 -3.4908 -3.1883
1 13 4 -11.0358 -0.9152
1 13 5 -7.5386 0.8418
1 13 6 -3.8533 -0.6905
1 13 7 3.6116 -1.1687
1 13 8 8.6883 0.5888
1 14 0 0.6531 -4.0979
1 14 1 -0.2846 -0.8417
1 14 2 -10.4369 1.2979
1 14 3 -6.9115 1.4840
1 14 4 0.8135 0.9223
1 14 5 1.8374 0.8824
2 -13 0 0.5796 3.1191
2 -13 1 0.2432 0.1155
2 -13 2 -0.4876 -0.8843
2 -13 3 1.5764 -1.1079
2 -13 4 -2.2707 -0.6735
2 -12 0 1.5103 -0.6507
2 -12 1 3.0665 2.2375
2 -12 2 3.9379 2.7294
2 -12 3 -1.6832 2.3740
2 -12 4 0.0510 1.3796
2 -12 5 3.8944 0.3192
2 -12 6 0.2057 1.0523
2 -12 7 -0.8751 0.5454
2 -11 0 -3.0651 3.9843
2 -11 1 -2.6978 3.6705
2 -11 2 -4.4543 3.8093
2 -11 3 0.2296 2.6142
2 -11 4 -2.8797 0.9371
2 -11 5 -7.1834 0.4215
2 -11 6 -1.4529 -0.4520
2 -11 7 0.4152 0.6218
2 -11 8 0.4134 1.1856
2 -11 9 1.1911 0.1037
2 -10 0 -0.2516 3.7293
2 -10 1 -0.3645 5.0752
2 -10 2 2.7118 3.4548
2 -10 3 -2.0552 1.4436
2 -10 4 -0.1609 0.2528
2 -10 5 2.6564 -1.0934
2 -10 6 -3.4695 -0.5977
2 -10 7 -2.2605 -0.5302
2 -10 8 0.0921 -0.5833
2 -10 9 0.2741 0.0108
2 -10 10 2.4337 -1.5422
2 -10 11 0.7782 -3.5558
2 -9 0 -1.2743 4.0563
2 -9 1 6.6520 2.8629
2 -9 2 3.4531 1.9656
2 -9 3 3.6242 0.5906
2 -9 4 -2.9654 -1.1937
2 -9 5 -7.7518 -0.9255
2 -9 6 -1.0403 -0.7170
2 -9 7 -1.8911 -0.4641
2 -9 8 -1.7580 -0.2591
2 -9 9 0.6600 -0.8063
2 -9 10 -1.9420 -0.1002
2 -9 11 -1.5229 1.2386
2 -9 12 2.0590 0.7094
2 -8 0 2.4660 2.1536
2 -8 1 -3.8187 2.8249
2 -8 2 3.5290 1.5088
2 -8 3 2.3641 -0.1479
2 -8 4 2.3532 -0.2619
2 -8 5 0.1326 -0.7582
2 -8 6 -9.4547 -0.4694
2 -8 7 -4.3450 0.5635
2 -8 8 0.9973 1.0513
2 -8 9 1.6037 0.9846
2 -8 10 5.0831 -0.0102
2 -8 11 3.0470 -1.0610
2 -8 12 -2.4335 -0.4727
2 -8 13 -2.3959 -0.7352
2 -7 0 9.2150 2.4546
2 -7 1 23.6083 1.9371
2 -7 2 11.3425 1.8661
2 -7 3 4.6106 1.7016
2 -7 4 -2.1966 0.2563
2 -7 5 -5.4062 -0.2225
2 -7 6 3.8433 -0.1195
2 -7 7 1.2440 -0.3661
2 -7 8 0.4056 -0.3827
2 -7 9 3.4529 0.0287
2 -7 10 -1.0013 0.6465
2 -7 11 -2.4854 0.9644
2 -7 12 -0.3520 0.3821
2 -7 13 -0.2843 1.1232
2 -7 14 0.1731 3.2156
2 -6 0 1.7119 2.2346
2 -6 1 -6.5085 3.7215
2 -6 2 11.5290 3.7449
2 -6 3 11.1898 2.5237
2 -6 4 3.3476 1.6353
2 -6 5 -2.2459 0.4819
2 -6 6 -14.2158 -0.3031
2 -6 7 -8.5654 0.0775
2 -6 8 -3.8749 0.8567
2 -6 9 -6.1688 0.7836
2 -6 10 -0.9316 -0.1225
2 -6 11 1.6254 -0.7797
2 -6 12 0.6824 -0.2129
2 -6 13 0.7413 0.1360
2 -6 14 -1.5426 -0.3354
2 -6 15 -3.0051 0.8101
2 -5 0 17.9323 4.6263
2 -5 1 34.9940 5.7910
2 -5 2 8.3346 5.4300
2 -5 3 -2.3586 3.7816
2 -5 4 -2.1983 1.5091
2 -5 5 -5.1386 0.2163
2 -5 6 3.7269 0.0229
2 -5 7 -0.8087 0.1721
2 -5 8 -1.4847 -0.1061
2 -5 9 7.4891 -0.2652
2 -5 10 4.3805 0.1643
2 -5 11 -0.6770 0.6185
2 -5 12 -3.4560 0.4470
2 -5 13 -6.7155 0.1969
2 -5 14 -3.8509 0.1274
2 -5 15 0.5479 -1.2109
2 -4 0 6.1038 5.0195
2 -4 1 -11.2395 5.8635
2 -4 2 17.1641 4.8442
2 -4 3 20.5551 2.7776
2 -4 4 4.4543 0.5664
2 -4 5 -3.0366 -1.0278
2 -4 6 -16.6409 -1.3568
2 -4 7 -8.5657 -0.9621
2 -4 8 0.9572 0.1567
2 -4 9 -3.7212 1.1307
2 -4 10 0.7973 1.0602
2 -4 11 4.0761 0.4718
2 -4 12 1.5628 0.0064
2 -4 13 2.6484 -0.2835
2 -4 14 0.5977 -0.5389
2 -4 15 -3.0135 -0.0357
2 -4 16 0.0536 0.7439
2 -3 0 -11.9265 4.6692
2 -3 1 24.2202 4.0613
2 -3 2 1.0417 2.7122
2 -3 3 -6.0367 0.7603
2 -3 4 2.6865 -0.7077
2 -3 5 -2.3225 -1.1795
2 -3 6 6.0341 -0.9713
2 -3 7 0.4719 0.1286
2 -3 8 -4.7721 0.7303
2 -3 9 6.4599 0.2885
2 -3 10 2.9688 -0.4124
2 -3 11 -4.4217 -0.9878
2 -3 12 -3.3885 -1.0047
2 -3 13 -5.9521 -0.6084
2 -3 14 -4.9759 -0.0776
2 -3 15 2.0275 0.2745
2 -3 16 2.2696 -0.2158
2 -2 0 34.3833 2.6963
2 -2 1 15.5460 2.5556
2 -2 2 45.0421 1.0311
2 -2 3 43.9328 -0.2738
2 -2 4 19.6175 -0.6748
2 -2 5 15.6650 -0.1668
2 -2 6 -0.9220 0.6427
2 -2 7 -2.7747 0.3938
2 -2 8 2.0266 -0.2145
2 -2 9 -8.8537 -0.4258
2 -2 10 -3.1207 -0.3271
2 -2 11 7.7839 -0.0460
2 -2 12 4.3646 -0.1798
2 -2 14 4.2638 0.3025
2 -2 15 -2.9651 0.9735
2 -2 16 -4.4345 2.2111
2 -2 17 0.4996 2.9673
2 -1 0 3.3259 1.0662
2 -1 1 32.1163 0.7883
2 -1 2 4.7092 1.2077
2 -1 3 -5.6041 1.6472
2 -1 4 -8.2326 1.4302
2 -1 5 -39.9982 0.3402
2 -1 6 -41.1025 -0.6724
2 -1 7 -31.1263 -0.4800
2 -1 8 -20.0383 0.2380
2 -1 9 6.1652 0.7781
2 -1 10 7.8239 0.7181
2 -1 11 -6.3160 0.0940
2 -1 12 -5.3726 0.0884
2 -1 13 -4.3643 0.7045
2 -1 14 -5.0473 0.8348
2 -1 15 3.5870 0.9459
2 -1 16 8.6719 0.3076
2 -1 17 3.7764 -0.6967
2 0 0 7.2807 1.1434
2 0 1 -5.5056 2.8104
2 0 2 12.4105 3.5434
2 0 3 -0.0259 2.5782
2 0 4 -14.3652 0.7846
2 0 5 16.8729 0.0088
2 0 6 21.2200 0.0709
2 0 7 11.6822 0.2876
2 0 9 -6.2624 0.0764
2 0 10 -2.5706 -0.4922
2 0 11 14.0730 -0.2727
2 0 12 9.7426 0.1548
2 0 13 1.6296 0.1703
2 0 14 0.9203 0.4373
2 0 15 -4.4776 0.0876
2 0 16 -8.2425 -0.4852
2 0 17 -2.7716 -0.5263
2 1 0 4.5795 4.2405
2 1 1 25.4295 4.3399
2 1 2 16.6984 2.4617
2 1 3 24.9830 0.6285
2 1 4 22.1088 0.1170
2 1 5 -28.5746 -0.2043
2 1 6 -37.6773 0.0221
2 1 7 -15.4796 0.3897
2 1 8 -2.7614 0.1319
2 1 10 12.7164 0.1723
2 1 11 -8.4598 -0.0854
2 1 12 -10.0982 -0.3994
2 1 13 -3.5145 0.1215
2 1 14 -3.9886 0.3676
2 1 15 -0.7544 0.5660
2 1 16 5.3192 1.0207
2 1 17 5.2277 1.0558
2 2 0 14.6561 2.7622
2 2 1 7.0303 0.7340
2 2 2 9.7111 -0.4860
2 2 3 -7.6358 -1.0590
2 2 4 -16.0376 -1.6746
2 2 5 22.1755 -0.9345
2 2 6 22.3384 -0.1711
2 2 7 -3.8530 0.0293
2 2 8 -9.5941 0.1900
2 2 9 -17.0950 0.0041
2 2 10 -11.6934 -0.3222
2 2 11 7.5502 -0.1509
2 2 12 7.7920 0.5133
2 2 13 -0.5088 0.1500
2 2 14 0.9498 -0.2240
2 2 15 3.8785 -0.0275
2 2 16 2.8889 0.1040
2 2 17 2.8842 0.4056
2 3 0 3.6605 -1.7538
2 3 1 28.2525 -1.5143
2 3 2 31.7083 -1.9395
2 3 3 31.3267 -2.3464
2 3 4 17.7216 -1.2146
2 3 5 -31.7410 -0.4106
2 3 6 -36.6233 0.2298
2 3 7 -8.8535 0.5858
2 3 8 1.6260 0.2215
2 3 9 14.2261 -0.3742
2 3 10 15.2144 -0.5668
2 3 11 -0.5915 -0.2679
2 3 12 -3.5942 -0.3202
2 3 13 1.1895 0.3824
2 3 14 0.9006 0.8907
2 3 15 0.4388 0.4277
2 3 16 2.3744 -0.0506
2 3 17 1.8327 -0.4336
2 4 0 17.4171 0.7471
2 4 1 -3.4503 -1.1930
2 4 2 -10.8539 -1.6424
2 4 3 -14.9769 -0.4163
2 4 4 -17.1570 0.2667
2 4 5 9.7934 0.8385
2 4 6 8.9927 0.7351
2 4 7 -6.5936 0.2467
2 4 8 -0.7909 -0.0739
2 4 9 -1.9918 0.1157
2 4 10 -1.8566 0.3872
2 4 11 5.9510 0.0348
2 4 12 2.1975 0.1853
2 4 13 -2.4387 -0.0427
2 4 14 -1.4405 -0.0890
2 4 15 -1.6624 0.5413
2 4 16 -3.8556 1.1447
2 4 17 -4.4609 1.8295
2 5 0 -13.9295 -0.5234
2 5 1 23.9698 -0.1802
2 5 2 36.0301 0.0806
2 5 3 29.0480 -0.1301
2 5 4 21.2048 0.3476
2 5 5 -6.0486 0.8464
2 5 6 -7.3217 1.2321
2 5 7 5.1525 0.9142
2 5 8 1.7199 0.3760
2 5 9 5.3921 -0.2294
2 5 10 4.4158 -0.5774
2 5 11 -2.6453 0.0482
2 5 12 1.2823 0.1259
2 5 13 1.3209 0.0714
2 5 14 -1.5886 -0.3201
2 5 15 0.7637 -0.6272
2 5 16 3.0399 -0.6115
2 6 0 38.1643 -0.3670
2 6 1 17.9378 -0.7800
2 6 2 8.7689 -1.1620
2 6 3 5.4891 -1.0409
2 6 4 -6.6151 -0.6870
2 6 5 -0.6587 -0.2478
2 6 6 -6.4649 -0.1036
2 6 7 -13.8839 0.4383
2 6 8 -5.3033 0.5534
2 6 9 -5.2023 0.2091
2 6 10 -1.5947 -0.0891
2 6 11 2.7939 -0.5501
2 6 12 -4.4249 -0.1298
2 6 13 -0.9458 0.4216
2 6 14 5.4784 1.1005
2 6 15 2.8503 0.5787
2 6 16 1.2159 -0.6512
2 7 0 -7.9854 -0.1453
2 7 1 10.8647 -1.5291
2 7 2 9.6077 -2.3019
2 7 3 -3.0162 -2.1561
2 7 4 -6.4193 -1.7423
2 7 5 -19.1909 -1.0436
2 7 6 -13.1880 -0.0541
2 7 7 0.2168 -0.1576
2 7 8 1.4597 -0.6422
2 7 9 7.6980 -0.7625
2 7 10 4.8490 -0.4693
2 7 11 -0.3119 0.1800
2 7 12 5.3707 0.4380
2 7 13 -1.3567 0.6138
2 7 14 -7.4358 -0.4977
2 7 15 -0.8229 -0.5797
2 8 0 19.0994 -0.9669
2 8 1 7.6853 -1.5426
2 8 2 8.2384 -2.1671
2 8 3 12.4697 -2.5400
2 8 4 6.7683 -1.5242
2 8 5 13.1220 -0.0883
2 8 6 8.0992 0.3534
2 8 7 0.6632 0.2311
2 8 8 5.6766 -0.2460
2 8 9 3.0068 -0.6782
2 8 10 2.8777 -0.8083
2 8 11 1.5603 -0.1849
2 8 12 -8.4162 0.4088
2 8 13 -2.3983 -0.5715
2 8 14 5.0252 -0.2317
2 8 15 1.2750 -0.0514
2 9 0 0.2332 0.2550
2 9 1 14.3423 -1.3436
2 9 2 9.0646 -1.9365
2 9 3 -2.5007 -1.0212
2 9 4 -3.7114 0.1602
2 9 5 -13.3953 0.9372
2 9 6 -10.5685 0.9962
2 9 7 -2.2213 0.5784
2 9 8 -5.1938 -0.0732
2 9 9 -3.1682 -0.5476
2 9 10 -3.2853 0.3113
2 9 11 -4.3903 0.7961
2 9 12 1.9404 0.9352
2 9 13 -1.4909 2.9297
2 9 14 -2.3957 2.7519
2 10 0 4.7217 -1.1360
2 10 1 -3.2960 -1.4927
2 10 2 1.7427 -1.3330
2 10 3 4.6927 -0.3089
2 10 4 -6.6435 0.8023
2 10 5 -5.2573 1.2850
2 10 6 -3.2659 1.6201
2 10 7 -2.6618 0.7638
2 10 8 5.7169 -0.0501
2 10 9 5.4938 0.3094
2 10 10 0.4842 -0.6516
2 10 11 -2.0590 -0.8901
2 10 12 -5.4305 0.0307
2 10 13 0.2524 -1.7718
2 11 0 5.4587 -0.6593
2 11 1 11.4717 -0.9833
2 11 2 1.4792 -0.0930
2 11 3 -8.1099 -0.2351
2 11 4 -0.6280 -0.4936
2 11 5 -0.8342 -0.3468
2 11 6 -2.9001 -1.1958
2 11 7 0.6884 -0.4456
2 11 8 -0.4751 0.4342
2 11 9 0.2267 -0.6280
2 11 10 3.2118 0.8041
2 11 11 2.0912 2.4319
2 11 12 1.2426 1.5538
2 12 0 0.3186 0.3770
2 12 1 -1.5116 0.7984
2 12 2 3.6454 -1.0970
2 12 3 7.0020 -1.1510
2 12 4 -4.3915 -0.5042
2 12 5 -6.0417 -0.2879
2 12 6 1.8965 1.1753
2 12 7 3.0509 -0.0555
2 12 8 3.0785 -1.8243
2 12 9 3.1859 -0.2034
2 12 10 0.1488 -1.0504
2 12 11 -0.0916 -2.9863
2 13 0 9.0243 0.0814
2 13 1 12.6701 -2.2584
2 13 2 9.9395 -0.8937
2 13 3 3.1814 -0.6186
2 13 4 7.6198 -0.3665
2 13 5 7.3606 0.7696
2 13 6 -1.9930 -0.0923
2 13 7 -2.5752 1.2025
2 13 8 1.5357 2.4744
2 13 9 1.5785 -0.7976
2 14 0 -0.2408 -1.7126
2 14 1 -2.7562 -0.6132
2 14 2 -5.2672 -3.4443
2 14 3 -3.4754 -4.0361
2 14 4 -10.4005 -3.0349
2 14 5 -15.1365 -2.2813
2 14 6 -6.5733 0.1880
2 14 7 -0.4123 -0.5344
2 15 0 1.2140 1.9333
2 15 1 2.5166 -0.7790
2 15 2 2.9948 1.2449
3 -12 0 -2.9684 -0.9976
3 -12 1 -2.8804 -1.1275
3 -12 2 1.3595 -1.5405
3 -12 3 -3.4149 0.8673
3 -12 4 -5.7063 1.1532
3 -12 5 -2.8752 0.2269
3 -12 6 -2.5184 1.1550
3 -11 0 1.3979 0.9371
3 -11 1 2.7337 1.5887
3 -11 2 -2.7362 2.6100
3 -11 3 1.4981 0.9604
3 -11 4 3.4111 0.8984
3 -11 5 0.9201 1.6942
3 -11 6 3.4904 0.3737
3 -11 7 1.7597 1.2533
3 -11 8 -1.0971 0.8429
3 -11 9 1.5629 -0.1344
3 -10 0 -3.6724 0.8229
3 -10 1 -7.1384 2.2732
3 -10 2 0.5127 2.3296
3 -10 3 -1.5281 3.1101
3 -10 4 -3.4033 1.7933
3 -10 5 -2.3309 -0.3173
3 -10 6 -5.8378 0.4034
3 -10 7 -1.6843 -0.2228
3 -10 8 3.7583 0.0529
3 -10 9 1.5501 0.8024
3 -10 10 -1.8639 -1.9954
3 -9 0 3.1894 1.7197
3 -9 1 8.9739 2.5405
3 -9 2 -1.8010 2.9731
3 -9 3 -3.9219 1.2180
3 -9 4 -3.3169 -0.0289
3 -9 5 -2.3726 0.0492
3 -9 6 3.4680 -0.9562
3 -9 7 -0.0763 -0.0186
3 -9 8 -4.5821 0.7048
3 -9 9 -2.8722 0.0767
3 -9 10 -1.1193 0.9996
3 -9 11 0.0009 0.9243
3 -9 12 0.4443 -2.0932
3 -8 0 -14.4542 1.9822
3 -8 1 -17.2098 2.6222
3 -8 2 -1.6725 1.8183
3 -8 3 1.3392 1.1115
3 -8 4 -1.4544 0.1732
3 -8 5 -4.9111 -1.0905
3 -8 6 -10.3754 -0.4113
3 -8 7 -4.0037 -0.0175
3 -8 8 1.7124 0.0401
3 -8 9 2.0670 0.2701
3 -8 10 3.2323 -0.5188
3 -8 11 1.2358 -0.7290
3 -8 12 -2.2525 1.2785
3 -8 13 -2.0475 2.5031
3 -7 0 17.8772 1.3255
3 -7 1 18.1926 1.7026
3 -7 2 1.9135 1.5956
3 -7 3 1.8117 0.6778
3 -7 4 4.3499 -0.3662
3 -7 5 4.0400 -0.2570
3 -7 6 6.0854 -0.3122
3 -7 7 -0.7621 -0.2147
3 -7 8 -1.9893 0.1306
3 -7 9 1.1256 0.4128
3 -7 10 -1.6032 0.4310
3 -7 11 -2.5064 -0.0695
3 -7 12 -1.1362 -1.2287
3 -7 13 -1.3201 -1.7146
3 -7 14 0.0859 -2.1930
3 -6 0 -12.8372 1.1936
3 -6 1 -2.3844 1.5744
3 -6 2 17.8434 1.4235
3 -6 3 11.1230 0.8823
3 -6 4 1.6156 0.4571
3 -6 5 -2.2715 -0.2661
3 -6 6 -8.0288 -0.5810
3 -6 7 -1.1597 -0.1908
3 -6 8 2.2620 0.2170
3 -6 9 1.1885 -0.2288
3 -6 10 4.8373 -0.5152
3 -6 11 4.1417 -0.2441
3 -6 12 1.1720 0.1173
3 -6 13 0.3991 0.3854
3 -6 14 -1.9857 1.9780
3 -6 15 -2.5912 4.9857
3 -5 0 13.5012 1.1737
3 -5 1 8.6653 2.1243
3 -5 2 -7.7656 2.6648
3 -5 3 0.3144 2.5715
3 -5 4 1.6988 1.5891
3 -5 5 -4.8642 0.4322
3 -5 6 0.6641 -0.1556
3 -5 7 -2.0922 -0.3746
3 -5 8 -3.3238 -0.4024
3 -5 9 -1.6287 0.4688
3 -5 10 -5.8546 0.8669
3 -5 11 -5.4389 0.2981
3 -5 12 -3.6885 0.1976
3 -5 13 -4.1807 0.9276
3 -5 14 -0.3126 0.5164
3 -5 15 1.9025 -1.5637
3 -4 0 -0.7423 1.4315
3 -4 1 6.2611 2.7334
3 -4 2 23.2876 3.3471
3 -4 3 10.2855 2.8372
3 -4 4 5.4812 1.4990
3 -4 5 10.5201 0.3450
3 -4 6 -2.9026 -0.3445
3 -4 7 -6.1626 -0.3271
3 -4 8 -3.1504 0.5636
3 -4 9 -0.9892 0.6933
3 -4 10 5.4464 0.3247
3 -4 11 3.0009 0.4228
3 -4 12 -2.0702 0.2855
3 -4 13 -2.2497 -0.4093
3 -4 14 -6.3558 -0.2310
3 -4 15 -7.6748 0.9786
3 -4 16 -1.7970 0.4174
3 -3 0 4.7442 2.2090
3 -3 1 7.0939 3.5752
3 -3 2 -9.6756 3.7141
3 -3 3 0.4409 2.4200
3 -3 4 -1.7699 0.9671
3 -3 5 -17.9406 -0.2136
3 -3 6 -7.3128 -0.6722
3 -3 7 -0.7139 -0.3307
3 -3 8 -0.5097 -0.3457
3 -3 9 0.9519 -0.2225
3 -3 10 -4.6027 0.1254
3 -3 11 -2.3155 -0.0845
3 -3 12 2.4113 -0.4367
3 -3 13 -1.1566 -0.3118
3 -3 14 0.2991 -0.4450
3 -3 15 2.9810 -0.9949
3 -3 16 -0.9318 -0.6532
3 -2 0 -22.3569 1.7921
3 -2 1 -18.3761 2.9378
3 -2 2 11.4283 2.5836
3 -2 3 8.1983 1.6647
3 -2 4 8.5336 0.1705
3 -2 5 23.3720 -0.9672
3 -2 6 9.0936 -0.9912
3 -2 7 -0.5788 -0.4114
3 -2 8 0.5102 0.5767
3 -2 9 0.5041 0.9860
3 -2 10 8.4961 0.3617
3 -2 11 5.9050 -0.3567
3 -2 12 -3.6769 -0.5320
3 -2 13 -0.3744 -0.4284
3 -2 14 2.8151 -0.0971
3 -2 15 3.1070 0.2319
3 -2 16 7.3955 0.3913
3 -2 17 6.6960 0.6457
3 -1 0 16.3959 1.5639
3 -1 1 30.6566 0.8766
3 -1 2 14.2715 0.6807
3 -1 3 23.9279 0.1050
3 -1 4 23.6960 -0.2497
3 -1 5 -2.1484 -0.0169
3 -1 6 -0.1846 0.1161
3 -1 7 1.8557 -0.1015
3 -1 8 -3.2479 -0.4627
3 -1 9 -1.9838 -0.4700
3 -1 10 -9.9040 -0.0923
3 -1 11 -8.9118 0.2088
3 -1 12 2.9514 -0.0721
3 -1 13 0.3215 -0.6391
3 -1 14 -5.5696 -0.8515
3 -1 15 -5.9428 -0.2061
3 -1 16 -7.7350 0.4373
3 -1 17 -5.4389 0.7208
3 0 0 -5.1756 0.8473
3 0 1 -9.4356 1.8393
3 0 2 10.6065 1.3338
3 0 3 -0.7665 0.8761
3 0 4 -12.3793 0.8322
3 0 5 -1.3411 0.3276
3 0 6 -16.7279 -0.4164
3 0 7 -24.9024 -0.3486
3 0 8 -15.0014 0.1144
3 0 9 -10.1106 0.1635
3 0 10 3.4815 -0.0360
3 0 11 8.5565 -0.5053
3 0 12 -2.8517 -0.7878
3 0 13 -2.1824 -0.4060
3 0 14 4.3574 0.4777
3 0 15 4.8984 0.9543
3 0 16 5.4936 1.3866
3 0 17 3.2318 1.5113
3 1 0 -5.4786 1.2792
3 1 1 15.5884 1.4637
3 1 2 9.4202 2.4992
3 1 3 15.1932 2.6278
3 1 4 12.5861 1.0942
3 1 5 -10.3410 -0.3228
3 1 6 1.5065 -0.1725
3 1 7 11.9124 0.1734
3 1 8 4.0815 0.4077
3 1 9 6.5378 0.7520
3 1 10 2.0977 0.3568
3 1 11 -2.2906 -0.1576
3 1 12 6.0391 -0.0841
3 1 13 4.7266 0.3664
3 1 14 -1.1838 0.4693
3 1 15 -0.0550 0.4729
3 1 16 0.7684 0.0429
3 1 17 1.2127 -0.5456
3 2 0 -4.5018 0.3772
3 2 1 -20.8187 1.4715
3 2 2 -11.8196 1.5362
3 2 3 -7.2899 0.7884
3 2 4 0.3893 0.4803
3 2 5 18.1201 0.6842
3 2 6 -2.0198 0.1604
3 2 7 -15.3995 0.0662
3 2 8 -1.9008 0.2275
3 2 9 -1.8110 -0.2177
3 2 10 -2.1524 -0.2478
3 2 11 0.7636 0.0708
3 2 12 -5.5003 0.1675
3 2 13 -5.1603 -0.1376
3 2 14 -1.9369 -0.0146
3 2 15 -4.3010 0.1991
3 2 16 -4.2715 0.2392
3 2 17 -0.8879 0.4003
3 3 0 -0.5981 2.0581
3 3 1 36.4729 2.2526
3 3 2 42.9980 0.9149
3 3 3 36.8594 -0.0883
3 3 4 20.9167 -0.2650
3 3 5 -5.2945 -0.4848
3 3 6 4.9173 0.0931
3 3 7 10.2639 0.3410
3 3 8 -8.0761 0.0152
3 3 9 -6.2911 -0.0723
3 3 10 1.5605 -0.3337
3 3 11 1.1881 -0.5615
3 3 12 3.3452 -0.5121
3 3 13 0.6095 0.1841
3 3 14 -0.9033 0.3571
3 3 15 4.1832 0.0813
3 3 16 6.9859 0.3436
3 3 17 4.5527 0.6149
3 4 0 15.2506 1.6344
3 4 1 -10.6705 0.5299
3 4 2 -12.8067 0.5419
3 4 3 -9.9014 0.2139
3 4 4 -8.9567 -0.8509
3 4 5 -0.4189 -0.6599
3 4 6 -18.1016 -0.2248
3 4 7 -24.4005 -0.0122
3 4 8 -4.5625 -0.0956
3 4 9 -2.3425 -0.3822
3 4 10 -6.5475 -0.3701
3 4 11 -3.5857 -0.2111
3 4 12 -3.0520 0.2758
3 4 13 0.9628 0.0463
3 4 14 2.6927 -0.1639
3 4 15 -0.2075 -0.0223
3 4 16 -1.3785 -0.4176
3 4 17 -0.5510 -0.5103
3 5 0 -25.6244 0.0860
3 5 1 0.6725 0.2329
3 5 2 6.5493 -0.6408
3 5 3 7.1791 -0.9979
3 5 4 8.8726 0.0546
3 5 5 -2.4782 0.2671
3 5 6 5.4350 -0.0243
3 5 7 9.4384 -0.0969
3 5 8 -0.3291 0.1304
3 5 9 6.2727 -0.0002
3 5 10 11.1583 -0.2981
3 5 11 5.7374 0.0104
3 5 12 2.4697 -0.1373
3 5 13 -2.5984 -0.0200
3 5 14 -1.4512 0.1379
3 5 15 3.9168 0.1943
3 5 16 5.0335 0.9364
3 5 17 3.4904 1.3771
3 6 0 8.1095 1.0514
3 6 1 2.0108 -0.0582
3 6 2 9.6992 -0.4974
3 6 3 12.1632 -0.2305
3 6 4 4.3284 -0.0768
3 6 5 8.0752 0.7056
3 6 6 0.1547 1.2837
3 6 7 -3.1581 0.9733
3 6 8 1.6358 0.0055
3 6 9 -7.4284 -0.0218
3 6 10 -9.8917 0.6159
3 6 11 -4.8926 0.2890
3 6 12 -3.5568 0.2409
3 6 13 2.8881 0.2215
3 6 14 3.3851 0.1290
3 6 15 -0.1631 -0.1334
3 6 16 0.3177 -0.8226
3 7 0 -3.3022 -0.7023
3 7 1 12.5480 -0.4019
3 7 2 12.0661 0.2005
3 7 3 8.6153 0.4400
3 7 4 7.8209 0.5429
3 7 5 -6.0054 0.4642
3 7 6 -8.2981 0.4996
3 7 7 -9.9250 0.5533
3 7 8 -11.0415 0.9054
3 7 9 1.8299 0.4323
3 7 10 3.8137 -0.6252
3 7 11 -0.0446 -0.3387
3 7 12 1.7910 0.2220
3 7 13 -2.6000 0.6245
3 7 14 0.3115 0.6605
3 7 15 6.0552 0.6712
3 7 16 3.1816 0.5415
3 8 0 8.2675 0.8317
3 8 1 -0.7925 0.8619
3 8 2 -0.7978 0.3454
3 8 3 -2.8609 -0.1563
3 8 4 -8.7894 -0.4063
3 8 5 -2.5172 -0.6214
3 8 6 -2.6566 -0.6281
3 8 7 2.7596 -0.0319
3 8 8 8.5844 -0.1582
3 8 9 -0.8487 -0.6612
3 8 10 -1.2935 -0.4896
3 8 11 1.3988 -0.3630
3 8 12 -1.9740 -0.2468
3 8 13 2.8899 -0.5718
3 8 14 0.1676 -1.1413
3 8 15 -5.2114 -2.1988
3 9 0 -7.4489 1.4755
3 9 1 3.8843 1.0568
3 9 2 6.0172 0.0014
3 9 3 7.5108 -0.7702
3 9 4 9.1215 -0.7117
3 9 5 0.2262 0.2109
3 9 6 0.3562 0.7033
3 9 7 -2.8644 -0.3603
3 9 8 -5.8774 -1.2808
3 9 9 5.1350 -0.9402
3 9 10 5.5931 -0.4144
3 9 11 -0.3458 -0.2616
3 9 12 -1.7631 0.1565
3 9 13 -9.1138 1.5240
3 9 14 -4.9175 2.5593
3 9 15 5.2088 3.7133
3 10 0 5.2454 0.6648
3 10 1 0.9890 -0.0811
3 10 2 1.5847 -0.0056
3 10 3 -2.1153 0.3483
3 10 4 -6.8054 0.4112
3 10 5 -0.1943 0.2471
3 10 6 -0.7424 0.4373
3 10 7 1.5621 0.9364
3 10 8 5.3643 0.9098
3 10 9 -3.7310 -0.1637
3 10 10 -7.2476 -0.8845
3 10 11 -6.4610 0.4434
3 10 12 -8.7013 1.7574
3 10 13 -1.6331 0.7717
3 10 14 0.9785 -0.2924
3 11 0 -4.2471 0.8369
3 11 1 2.0829 0.6866
3 11 2 2.4587 -0.1236
3 11 3 5.3878 -0.5651
3 11 4 6.5173 0.4259
3 11 5 -5.1827 1.4044
3 11 6 -7.7349 1.0456
3 11 7 -4.6811 0.5265
3 11 8 -3.2268 -0.1508
3 11 9 2.8221 -0.1586
3 11 10 2.1553 1.0569
3 11 11 -1.5479 0.7880
3 11 12 1.4555 0.1617
3 11 13 0.4522 1.5329
3 12 0 2.6825 0.0706
3 12 1 0.4109 -0.6206
3 12 2 1.5295 -0.5395
3 12 3 -4.1133 0.3762
3 12 4 -11.3305 -0.0158
3 12 5 -3.6202 -0.3895
3 12 6 1.4871 0.4714
3 12 7 -0.5292 0.1118
3 12 8 -0.6258 0.4169
3 12 9 -1.2338 1.5439
3 12 10 0.2275 0.4543
3 12 11 1.7344 0.0404
3 13 0 2.1530 -0.1468
3 13 1 5.8810 0.4588
3 13 2 2.9590 0.8583
3 13 3 3.3087 -0.3638
3 13 4 8.1871 -0.3561
3 13 5 2.8462 -0.3069
3 13 6 -1.2625 -1.6857
3 13 7 4.2518 -0.9303
3 13 8 7.6889 -1.2291
3 13 9 5.8424 -3.6800
3 13 10 2.6940 -2.7734
3 14 0 2.4896 0.1013
3 14 1 1.2174 0.1109
3 14 2 4.6802 -0.7370
3 14 3 6.3832 0.3479
3 14 4 0.4502 0.6135
3 14 5 -0.3137 1.0587
3 14 6 1.9342 3.1568
3 14 7 -2.2641 2.1604
3 14 8 -4.4326 1.5754
3 15 0 -1.6716 0.0094
3 15 1 1.2162 -0.9685
3 15 2 -0.3477 -0.4600
3 15 3 -5.5512 -1.4706
3 15 4 -4.7969 -1.3080
4 -12 1 -0.2687 2.5771
4 -12 2 -0.1910 1.1947
4 -11 0 -3.2029 -0.1375
4 -11 1 -1.0713 -0.8729
4 -11 2 -3.8427 -0.0019
4 -11 3 -2.4882 0.5405
4 -11 4 -7.6000 1.6043
4 -11 5 -8.3330 -0.1910
4 -11 6 0.4062 -1.4170
4 -11 7 -0.1047 2.7374
4 -10 0 -1.1674 -1.0222
4 -10 1 -6.4688 -0.2725
4 -10 2 -1.1050 -0.1898
4 -10 3 -1.3271 0.2676
4 -10 4 3.3670 -0.2138
4 -10 5 3.9734 1.3416
4 -10 6 -5.0892 2.4487
4 -10 7 -1.1065 -1.2991
4 -10 8 6.4389 -0.5529
4 -10 9 3.0193 2.5904
4 -10 10 0.0363 1.4770
4 -9 0 4.1593 0.0881
4 -9 1 6.8687 0.7128
4 -9 2 -2.0351 1.1889
4 -9 3 -0.0576 0.8902
4 -9 4 -0.7294 1.1562
4 -9 5 -0.6656 -0.1783
4 -9 6 7.8211 -1.3603
4 -9 7 4.1506 1.6349
4 -9 8 -2.2387 1.0141
4 -9 9 1.1156 -2.1456
4 -9 10 2.0672 -1.5844
4 -9 11 -0.6429 -0.3914
4 -8 0 -6.1080 -0.2971
4 -8 1 -5.9083 0.2796
4 -8 2 2.6937 1.0819
4 -8 3 -5.9390 1.3179
4 -8 4 -11.5515 0.0847
4 -8 5 -10.0189 -0.1570
4 -8 6 -12.1267 0.6699
4 -8 7 -5.0520 -0.5676
4 -8 8 0.8160 0.4798
4 -8 9 -2.1807 2.7987
4 -8 10 -2.6051 1.8015
4 -8 11 -1.7892 -0.6566
4 -8 12 -3.4440 -0.9020
4 -8 13 -2.4705 -0.0143
4 -7 0 3.4239 -0.4016
4 -7 1 -4.7094 0.5372
4 -7 2 -14.4059 0.5241
4 -7 3 -1.4085 0.1802
4 -7 4 7.3488 0.1722
4 -7 5 4.8735 -0.3087
4 -7 6 4.9274 -1.0076
4 -7 7 -0.2352 0.0799
4 -7 8 -2.0039 0.5536
4 -7 9 0.8706 -0.0739
4 -7 10 -0.5962 -0.3274
4 -7 11 -0.4633 0.2440
4 -7 12 1.9218 -0.0668
4 -7 13 -0.0775 -0.9225
4 -7 14 -1.2824 -0.4586
4 -6 0 0.0080 0.5087
4 -6 1 9.9808 0.7482
4 -6 2 17.2499 0.9375
4 -6 3 2.9461 0.3073
4 -6 4 -3.4208 -0.5829
4 -6 5 -0.2538 -0.8618
4 -6 6 -2.8579 -0.5619
4 -6 7 -0.9595 -0.5258
4 -6 8 -0.2105 -0.6319
4 -6 9 0.3708 -0.8555
4 -6 10 4.7313 -0.2522
4 -6 11 1.9788 -0.1147
4 -6 12 -4.5213 -0.1603
4 -6 13 -4.1674 0.4047
4 -6 14 -2.1818 0.0511
4 -5 0 1.9870 -0.0663
4 -5 1 -5.5638 0.6600
4 -5 2 -8.1002 0.6210
4 -5 3 4.6174 0.6850
4 -5 4 2.5670 0.4316
4 -5 5 -4.8345 -0.0655
4 -5 6 0.4396 -0.0836
4 -5 7 2.0828 -0.1070
4 -5 8 4.0678 0.0099
4 -5 9 4.7187 0.7149
4 -5 10 -0.6340 -0.1407
4 -5 11 0.2223 -1.0807
4 -5 12 4.5262 -0.8169
4 -5 13 3.4091 -0.3684
4 -5 14 2.3146 0.9060
4 -5 15 1.7378 2.5147
4 -4 0 -1.6671 0.1844
4 -4 1 2.6675 -0.0954
4 -4 2 6.2402 0.5235
4 -4 3 -0.1344 0.6574
4 -4 4 8.9174 0.4244
4 -4 5 15.5806 0.0441
4 -4 6 4.3582 -0.9666
4 -4 7 1.8785 -1.0859
4 -4 8 1.5333 -0.2398
4 -4 9 -1.5914 -0.2117
4 -4 10 -0.1606 0.4297
4 -4 11 -2.9651 1.0453
4 -4 12 -7.2117 0.4886
4 -4 13 -6.2972 -0.0942
4 -4 14 -5.9445 -0.6175
4 -4 15 -3.6388 -1.4733
4 -4 16 -0.4408 -2.7475
4 -3 0 1.0088 -0.2100
4 -3 1 6.4832 0.8614
4 -3 2 3.8486 1.1437
4 -3 3 5.3494 1.1475
4 -3 4 -9.1255 0.7481
4 -3 5 -17.9797 -0.2101
4 -3 6 -6.3494 -0.3263
4 -3 7 -7.9947 -0.2094
4 -3 8 -12.2967 -0.5314
4 -3 9 -6.9164 0.0398
4 -3 10 -4.6602 0.4256
4 -3 11 -1.8952 0.0900
4 -3 12 -0.2736 -0.0828
4 -3 13 -3.2036 0.0835
4 -3 14 -2.9490 0.4763
4 -3 15 -4.9717 1.3374
4 -3 16 -7.8771 2.5132
4 -2 0 -6.3900 -0.2893
4 -2 1 -18.7059 0.3676
4 -2 2 -11.0954 1.1616
4 -2 3 -7.1128 1.2246
4 -2 4 7.4597 0.3833
4 -2 5 15.0881 -0.0634
4 -2 6 1.2570 -0.2886
4 -2 7 4.4387 -0.2125
4 -2 8 13.0371 0.6240
4 -2 9 8.1200 0.8673
4 -2 10 5.1504 0.1754
4 -2 11 2.3063 -0.4150
4 -2 12 0.3431 -0.3739
4 -2 13 3.5126 -0.3164
4 -2 14 2.6629 -0.3234
4 -2 15 5.1298 -0.6441
4 -2 16 10.6464 -1.4532
4 -2 17 6.7406 -1.0814
4 -1 0 -11.1231 -1.2471
4 -1 1 4.3807 -0.1219
4 -1 2 -4.8908 0.7535
4 -1 3 -2.8733 0.6576
4 -1 4 -3.7251 0.4063
4 -1 5 -3.7122 -0.1407
4 -1 6 12.7947 -0.6112
4 -1 7 8.6685 -0.3534
4 -1 8 -5.0688 -0.0435
4 -1 9 -4.4329 -0.0909
4 -1 10 -4.9242 0.1419
4 -1 11 -3.9637 0.4161
4 -1 12 -1.4930 -0.1642
4 -1 13 -4.6752 -0.5954
4 -1 14 -1.4998 -0.6123
4 -1 15 0.8148 -0.4798
4 -1 16 -3.3267 -0.0597
4 -1 17 -2.2561 0.1311
4 0 0 -15.3189 0.6580
4 0 1 -25.5701 1.1993
4 0 2 4.0092 0.7211
4 0 3 17.5160 0.6728
4 0 4 20.0347 0.3905
4 0 5 18.0299 -0.1113
4 0 6 -5.6341 -0.1598
4 0 7 -12.1751 -0.3004
4 0 8 -3.0321 -0.7689
4 0 9 -2.6821 -0.4415
4 0 10 1.2108 0.0748
4 0 11 1.9192 -0.1618
4 0 12 -2.1064 -0.0995
4 0 13 1.9319 -0.2364
4 0 14 0.3204 -0.6788
4 0 15 -3.8161 -0.6439
4 0 16 -0.6954 -0.0820
4 0 17 0.6924 0.3971
4 1 0 10.4168 1.0555
4 1 1 26.0793 0.7914
4 1 2 -2.5643 1.1372
4 1 3 -12.8488 0.5758
4 1 4 -9.4710 -0.0465
4 1 5 -10.1868 -0.0235
4 1 6 7.9203 -0.3581
4 1 7 13.0248 -0.8629
4 1 8 1.5848 -0.1722
4 1 9 -1.5887 0.2807
4 1 10 -7.6354 -0.1229
4 1 11 -8.5349 -0.1235
4 1 12 -0.5044 -0.5144
4 1 13 -1.5729 -0.8992
4 1 14 0.5229 -0.6042
4 1 15 7.1835 -0.1197
4 1 16 6.3626 0.0566
4 1 17 2.6990 0.3301
4 2 0 -25.1141 -0.3226
4 2 1 -40.1196 0.1552
4 2 2 -3.3090 0.3174
4 2 3 14.6639 0.7786
4 2 4 12.7891 0.7662
4 2 5 15.4849 -0.2604
4 2 6 -2.3607 -0.7431
4 2 7 -12.7053 0.2110
4 2 8 -5.7323 0.4394
4 2 9 -4.4407 0.2332
4 2 10 2.8228 0.4805
4 2 11 7.5804 -0.0783
4 2 12 0.2940 -0.5161
4 2 13 1.0278 -0.2972
4 2 14 2.1666 0.1877
4 2 15 -2.2874 0.7491
4 2 16 -3.5486 1.3149
4 2 17 -2.4656 1.3725
4 3 0 -5.8321 -0.5882
4 3 1 15.3154 0.1184
4 3 2 -8.0713 0.9122
4 3 3 -11.9655 1.1456
4 3 4 1.1956 0.8819
4 3 5 -0.1905 0.8422
4 3 6 10.9949 0.9275
4 3 7 15.7627 0.1257
4 3 8 5.7853 -0.0512
4 3 9 3.7363 0.2552
4 3 10 -4.5868 -0.1317
4 3 11 -12.7957 -0.0557
4 3 12 -5.1801 0.2115
4 3 13 -1.3924 0.3057
4 3 14 -1.6726 0.1292
4 3 15 0.7964 -0.1942
4 3 16 2.9493 -0.4929
4 3 17 4.0526 -0.7549
4 4 0 2.9764 0.3280
4 4 1 -8.1988 1.2725
4 4 2 22.0826 1.6026
4 4 3 32.5318 1.1029
4 4 4 21.3879 0.6081
4 4 5 20.7010 0.5537
4 4 6 5.8028 0.1799
4 4 7 -6.5306 0.2559
4 4 8 -5.9763 0.1640
4 4 9 -11.1678 -0.2943
4 4 10 -5.4588 -0.4227
4 4 11 5.5440 -0.6623
4 4 12 0.7423 -0.4936
4 4 13 -3.2918 -0.1727
4 4 14 -0.9361 0.2671
4 4 15 1.5627 0.5177
4 4 16 1.1389 0.1114
4 4 17 -1.5537 -0.0387
4 5 0 -5.5889 1.6056
4 5 1 4.5558 1.6847
4 5 2 -18.5055 1.0151
4 5 3 -24.4130 0.5273
4 5 4 -12.9394 0.1480
4 5 5 -15.8381 -0.6207
4 5 6 -9.8112 -0.4262
4 5 7 -5.2159 -0.0406
4 5 8 -7.7028 -0.2209
4 5 9 -0.9342 -0.7113
4 5 10 -2.9321 -0.8134
4 5 11 -10.0650 -0.2562
4 5 12 -3.2661 -0.3378
4 5 13 2.5441 -0.4477
4 5 14 1.7500 -0.6376
4 5 15 -0.4143 -0.9192
4 5 16 1.2755 -0.2549
4 5 17 5.1855 0.4149
4 6 0 -15.3732 0.8654
4 6 1 -24.2073 0.4108
4 6 2 -0.9857 0.3680
4 6 3 10.1681 0.2543
4 6 4 4.9055 -0.1154
4 6 5 10.0503 0.1589
4 6 6 6.2136 -0.0772
4 6 7 2.9966 -0.6265
4 6 8 4.4818 -0.6285
4 6 9 -1.3593 -0.0650
4 6 10 1.3175 -0.0599
4 6 11 5.7394 -0.5130
4 6 12 -1.4624 0.4281
4 6 13 -3.8743 0.9569
4 6 14 0.2936 0.4210
4 6 15 6.0923 -0.0103
4 6 16 7.1100 -0.6261
4 6 17 2.5521 -0.6562
4 7 0 -9.2572 -0.0420
4 7 1 2.8850 0.3793
4 7 2 -5.2023 0.1015
4 7 3 -4.0745 -0.3337
4 7 4 5.7464 0.1659
4 7 5 0.6898 0.6455
4 7 6 -0.4266 0.9552
4 7 7 -1.9718 0.8483
4 7 8 -3.4171 0.3937
4 7 9 0.4871 -0.2427
4 7 10 -6.4004 0.0599
4 7 11 -11.4609 1.0403
4 7 12 -4.6866 0.1517
4 7 13 -2.0732 -0.3664
4 7 14 0.6820 0.9672
4 7 15 3.3208 2.0575
4 7 16 4.7124 2.1723
4 8 0 -0.3628 0.5814
4 8 1 -6.4966 0.0326
4 8 2 2.8026 0.0652
4 8 3 4.6232 0.8594
4 8 4 -1.3019 1.1175
4 8 5 3.1784 0.9095
4 8 6 2.4495 0.6827
4 8 7 1.2431 0.7953
4 8 8 -3.0039 0.6015
4 8 9 -9.2585 0.5529
4 8 10 -1.0015 0.3861
4 8 11 3.4930 -0.3614
4 8 12 -1.4104 0.4703
4 8 13 2.2781 0.9001
4 8 14 3.0123 -1.1047
4 8 15 0.9785 -3.2814
4 8 16 0.2082 -3.8793
4 9 0 -2.4048 -0.2095
4 9 1 3.9750 0.5124
4 9 2 -0.4075 1.4630
4 9 3 -1.5659 1.5073
4 9 4 -0.1049 0.8589
4 9 5 -7.2057 0.2844
4 9 6 -7.2994 0.0876
4 9 7 -5.4682 -0.1291
4 9 8 1.8321 0.2439
4 9 9 9.1883 0.1456
4 9 10 -0.0964 -0.7490
4 9 11 -3.0602 -0.4282
4 9 12 3.8868 -0.1679
4 9 13 -0.3002 -0.0100
4 9 14 -1.6080 1.1345
4 9 15 -0.3814 2.0818
4 10 0 -6.9725 1.4358
4 10 1 -12.6093 2.3202
4 10 2 -7.9374 1.4724
4 10 3 -4.5526 0.2783
4 10 4 -2.4867 0.3030
4 10 5 5.1381 0.8405
4 10 6 5.0623 0.6179
4 10 7 4.8982 -0.0187
4 10 8 0.3576 -1.1929
4 10 9 -5.0533 -1.6803
4 10 10 2.6263 -0.5869
4 10 11 0.3493 -0.5348
4 10 12 -12.4684 -1.2130
4 10 13 -10.9020 -0.8868
4 11 0 -3.9766 0.8704
4 11 1 0.3860 0.4421
4 11 2 -1.3714 1.0527
4 11 3 0.1872 1.8911
4 11 4 2.2606 1.2147
4 11 5 -1.6244 0.0481
4 11 6 0.3540 0.2326
4 11 7 0.0429 0.6582
4 11 8 1.1224 0.3062
4 11 9 3.0158 -0.5471
4 11 10 -6.3374 -1.4441
4 11 11 -8.6873 -0.0357
4 11 12 -1.7212 3.2114
4 11 13 -4.1771 4.6354
4 12 0 -0.7339 0.8948
4 12 1 -1.5661 1.3263
4 12 2 2.4157 0.5656
4 12 3 0.8844 -0.4819
4 12 4 -2.3921 0.0594
4 12 5 -0.4751 1.1918
4 12 6 -3.5248 0.5772
4 12 7 -3.4492 -0.3813
4 12 8 -1.8259 0.8594
4 12 9 -2.9739 2.7752
4 12 10 0.7289 3.6096
4 12 11 0.5486 2.6048
4 12 12 -3.3011 -0.0232
4 13 0 -1.8385 -0.1658
4 13 1 0.5284 -0.5490
4 13 2 0.3831 -0.1731
4 13 3 3.9665 0.4154
4 13 4 5.5779 0.1694
4 13 5 0.0099 -0.2306
4 13 6 0.0577 1.0098
4 13 7 1.4844 2.2360
4 13 8 0.8836 -0.2464
4 13 9 1.9761 -3.3994
4 13 10 1.1883 -3.6302
4 14 0 4.8625 0.1921
4 14 2 2.7620 -0.1612
4 14 3 -1.9740 -0.3926
4 14 4 -4.9244 0.0357
4 14 5 -0.3484 0.2136
4 14 6 1.0573 -1.4112
4 14 7 -0.0841 -3.5141
4 14 8 1.8306 -1.3146
4 14 9 3.0891 2.0003
4 15 0 -2.1328 -1.1047
4 15 1 -1.6741 -0.4210
4 15 2 -1.4044 1.9119
4 15 3 1.3579 2.7491
4 15 4 3.7797 1.9918
4 15 5 0.8697 1.0892
5 -11 0 3.1876 2.3642
5 -11 1 3.9394 0.7834
5 -11 2 -0.8499 0.0613
5 -11 3 -2.3332 -1.8645
5 -11 4 -4.0575 -2.0612
5 -11 5 0.4579 -1.4573
5 -10 0 -2.5876 -1.8183
5 -10 1 -5.2797 -0.9388
5 -10 2 -1.2365 -0.7188
5 -10 3 -5.9649 0.7016
5 -10 4 -7.3105 0.6536
5 -10 5 -8.4853 0.3339
5 -10 6 -5.9510 0.2887
5 -10 7 2.1093 1.2510
5 -10 8 -2.2037 6.6779
5 -9 0 -0.7876 0.4474
5 -9 1 -2.6997 -0.2993
5 -9 2 -8.8894 -0.3752
5 -9 3 2.3979 -1.1058
5 -9 4 8.9429 -0.6503
5 -9 5 8.9846 -0.1033
5 -9 6 5.7525 0.3626
5 -9 7 -1.9379 0.4716
5 -9 8 4.6916 -3.4844
5 -9 9 15.0739 -2.3298
5 -8 0 6.0635 -0.9635
5 -8 1 8.0189 -0.7939
5 -8 2 12.5671 -0.7212
5 -8 3 -5.0695 -0.2914
5 -8 4 -14.9122 -0.4206
5 -8 5 -12.1515 -0.2473
5 -8 6 -7.2104 -0.1530
5 -8 7 1.7548 -0.3055
5 -8 8 -1.4063 2.7342
5 -8 9 -9.8886 2.1496
5 -8 10 -6.3397 -2.9364
5 -8 11 -2.8098 -4.0680
5 -8 12 -4.5452 0.2406
5 -7 0 -0.3846 -0.8207
5 -7 1 -6.9654 -0.9102
5 -7 2 -15.1871 -0.6756
5 -7 3 0.8029 -0.3281
5 -7 4 8.7633 -0.2011
5 -7 5 4.5863 -0.7004
5 -7 6 3.4208 -0.5824
5 -7 7 -0.5453 0.6079
5 -7 8 1.3129 -0.2745
5 -7 9 5.3745 -0.0327
5 -7 10 1.7152 2.0202
5 -7 11 1.4617 1.8411
5 -7 12 3.7653 -2.4939
5 -7 13 -0.4234 -5.1770
5 -6 0 2.7074 -0.7744
5 -6 1 4.9979 -0.6980
5 -6 2 9.2371 -0.4193
5 -6 3 -6.0065 -0.7207
5 -6 4 -10.6593 -0.8434
5 -6 5 -4.7808 -0.4873
5 -6 6 -5.2607 -0.5447
5 -6 7 -3.1378 -0.9241
5 -6 8 -2.4171 0.0113
5 -6 9 -2.5099 0.6910
5 -6 10 0.4416 0.5524
5 -6 11 -3.0761 -0.2239
5 -6 12 -6.7030 1.3814
5 -6 13 -1.6569 3.5925
5 -6 14 0.9974 1.8582
5 -5 0 6.5171 -0.8786
5 -5 1 4.3923 -0.4522
5 -5 2 -2.7820 -0.4372
5 -5 3 3.9835 -0.1433
5 -5 4 2.6858 -0.5032
5 -5 5 -2.0147 -0.9858
5 -5 6 1.7049 -0.4560
5 -5 7 0.9026 0.2029
5 -5 8 0.3281 0.2372
5 -5 9 1.7458 -0.1206
5 -5 10 1.0905 -1.3688
5 -5 11 4.9847 -0.9295
5 -5 12 6.2639 -0.9646
5 -5 13 -0.5276 -2.5300
5 -5 14 -2.5803 -1.6918
5 -5 15 -0.9920 -1.5706
5 -4 0 -1.7679 -0.2002
5 -4 1 -8.4574 -0.2330
5 -4 2 -2.1936 -0.0956
5 -4 3 -1.0434 -0.5770
5 -4 4 5.4269 -0.4246
5 -4 5 7.8179 -0.1760
5 -4 6 2.5943 -0.8436
5 -4 7 6.8627 -0.9487
5 -4 8 9.9289 -0.7395
5 -4 9 6.1046 -0.7215
5 -4 10 3.3078 0.4624
5 -4 11 -2.4300 -0.0652
5 -4 12 -5.5647 -1.0519
5 -4 13 -1.4328 0.1481
5 -4 14 -0.3335 0.9889
5 -4 15 0.6535 2.2140
5 -4 16 2.6866 3.2464
5 -3 0 4.4097 0.0145
5 -3 1 7.3306 -0.5246
5 -3 2 -6.6285 -0.8213
5 -3 3 -11.8456 -0.1842
5 -3 4 -12.1930 -0.2461
5 -3 5 -3.1411 -0.7783
5 -3 6 7.9554 -0.5059
5 -3 7 0.6730 -0.7185
5 -3 8 -6.2383 -0.8411
5 -3 9 -2.5640 -0.0174
5 -3 10 -1.8605 -0.2038
5 -3 11 -0.7788 0.1053
5 -3 12 0.6424 0.9092
5 -3 13 -1.2318 0.3969
5 -3 14 0.0010 -0.3602
5 -3 15 -2.0222 -1.1050
5 -3 16 -5.6791 -1.3402
5 -2 0 -18.2931 -0.4284
5 -2 1 -14.6902 -0.5344
5 -2 2 11.6236 -0.4272
5 -2 3 19.2217 -0.9822
5 -2 4 11.3931 -1.1069
5 -2 5 -4.5786 -0.7575
5 -2 6 -16.4064 -0.9986
5 -2 7 -4.9035 -0.6107
5 -2 8 4.9665 0.3485
5 -2 9 -0.7004 0.4841
5 -2 10 -2.6686 0.5747
5 -2 11 -3.0030 0.4020
5 -2 12 -4.9106 -0.3712
5 -2 13 -4.0591 -1.0962
5 -2 14 -5.7362 -0.9804
5 -2 15 -2.4868 -0.2353
5 -2 16 2.7028 0.0437
5 -2 17 0.3067 0.5730
5 -1 0 21.7626 -1.6351
5 -1 1 2.1191 -1.7417
5 -1 2 -38.4433 -1.3743
5 -1 3 -39.3969 -0.4373
5 -1 4 -14.1927 0.0472
5 -1 5 9.9680 -0.2744
5 -1 6 23.1268 -0.1744
5 -1 7 10.7806 0.1958
5 -1 8 -2.3330 0.1828
5 -1 9 0.1787 0.2284
5 -1 10 -1.3692 0.3882
5 -1 11 -3.1334 -0.0386
5 -1 12 -0.5396 -0.6081
5 -1 13 -0.8711 0.1681
5 -1 14 2.3703 0.8815
5 -1 15 2.0831 0.8699
5 -1 16 -0.7265 1.1312
5 -1 17 2.4835 0.5207
5 0 0 -34.9752 -1.3450
5 0 1 -20.7070 -1.0451
5 0 2 16.5363 -0.3738
5 0 3 9.2213 0.0650
5 0 4 -14.0028 0.0315
5 0 5 -16.3222 0.1103
5 0 6 -11.5794 0.0983
5 0 7 1.2818 -0.3345
5 0 8 7.9556 -0.4617
5 0 9 -0.4541 0.0100
5 0 10 -1.6020 -0.1553
5 0 11 -0.8857 -0.1509
5 0 12 -3.7776 0.6792
5 0 13 0.0928 0.0386
5 0 14 0.6870 -0.8701
5 0 15 1.9512 -0.9327
5 0 16 4.7146 -1.3769
5 0 17 0.7121 -1.3041
5 1 0 2.7572 -0.6534
5 1 1 -13.7284 0.1773
5 1 2 -39.0371 0.4308
5 1 3 -8.4222 -0.0011
5 1 4 27.7355 -0.1547
5 1 5 21.3147 -0.2363
5 1 6 9.3758 -0.6198
5 1 7 1.9148 -0.4867
5 1 8 -0.3281 -0.0292
5 1 9 6.4614 -0.4584
5 1 10 2.9041 -0.2350
5 1 11 -1.1178 0.3847
5 1 12 2.3961 -0.3651
5 1 13 -0.7921 -0.4160
5 1 14 -0.1426 -0.1870
5 1 15 1.5818 -0.7457
5 1 16 -0.2480 -0.6694
5 1 17 2.1153 -0.0909
5 2 0 -2.2366 0.6063
5 2 1 2.5228 -0.0680
5 2 2 18.6299 -0.4817
5 2 3 -11.0097 -0.0410
5 2 4 -31.8441 0.1079
5 2 5 -3.0722 -0.2466
5 2 6 15.2716 -0.2469
5 2 7 10.8413 -0.4101
5 2 8 1.4712 -1.0320
5 2 9 -11.0424 -0.3405
5 2 10 -9.6852 0.3033
5 2 11 -6.1112 -0.1672
5 2 12 -10.8386 0.0507
5 2 13 -6.3845 -0.2486
5 2 14 -2.7972 -0.9179
5 2 16 2.7138 0.0015
5 2 17 0.9529 0.0855
5 3 0 -13.0786 -0.6224
5 3 1 -21.2367 -0.5289
5 3 2 -34.5889 0.0997
5 3 3 -3.1501 0.2648
5 3 4 20.3855 0.2430
5 3 5 -1.0610 0.2545
5 3 6 -5.5022 -0.2300
5 3 7 8.9747 -0.6316
5 3 8 13.1991 0.1712
5 3 9 13.0468 0.3721
5 3 10 1.7652 -0.0005
5 3 11 -6.5411 0.2640
5 3 12 0.9345 -0.1726
5 3 13 2.5731 -0.4830
5 3 14 2.9628 -0.0823
5 3 15 4.0916 0.1191
5 3 16 0.2421 0.2122
5 3 17 -1.0448 0.6399
5 4 0 -9.7895 -0.8861
5 4 1 -8.0898 -0.2961
5 4 2 11.1233 0.2288
5 4 3 0.7293 0.6441
5 4 4 -2.4403 0.7114
5 4 5 25.0191 0.4056
5 4 6 23.0054 0.2961
5 4 7 1.0053 0.6837
5 4 8 -5.6258 0.3284
5 4 9 -8.6118 0.0101
5 4 10 -3.6050 0.1800
5 4 11 1.1362 -0.1245
5 4 12 -6.7218 -0.0751
5 4 13 -6.1524 0.0970
5 4 14 -1.3988 0.1043
5 4 15 0.5771 0.2875
5 4 16 4.2936 0.4355
5 4 17 5.5377 0.1799
5 5 0 4.4852 -0.5714
5 5 1 3.7634 -0.0172
5 5 2 -12.0921 0.2707
5 5 3 -0.1940 0.5210
5 5 4 8.2282 0.7068
5 5 5 -9.1041 0.6827
5 5 6 -2.8431 0.6190
5 5 7 11.5227 0.0149
5 5 8 4.3136 -0.2459
5 5 9 -3.0337 -0.1168
5 5 10 -10.8984 -0.2698
5 5 11 -15.4422 -0.4017
5 5 12 -5.7270 -0.5804
5 5 13 -1.5428 -0.2986
5 5 14 -0.9822 -0.0944
5 5 15 2.3063 -0.4413
5 5 16 2.0407 -0.8256
5 5 17 -1.2812 -1.0845
5 6 0 -6.4624 -0.2005
5 6 1 -16.5796 0.2284
5 6 2 -7.5142 1.0497
5 6 3 -15.0800 1.1454
5 6 4 -14.1502 0.5335
5 6 5 9.6639 0.1951
5 6 6 8.1939 -0.1569
5 6 7 -5.1436 -0.0443
5 6 8 -3.5827 0.0814
5 6 9 -3.6780 -0.3996
5 6 10 -0.8867 -0.9963
5 6 11 4.0208 -1.0198
5 6 12 -0.3751 -0.3980
5 6 13 -0.8337 -0.4464
5 6 14 -1.2562 -0.3755
5 6 15 -5.5303 0.2892
5 6 16 -5.3322 0.4016
5 6 17 0.7266 0.6124
5 7 0 -16.1261 0.8939
5 7 1 -10.3468 1.2588
5 7 2 -14.7914 0.5155
5 7 3 -1.4273 0.1013
5 7 4 3.4481 0.3784
5 7 5 -14.6441 0.2147
5 7 6 -12.6264 0.2017
5 7 7 -0.1649 0.0591
5 7 8 1.1148 -0.4713
5 7 9 2.2769 -0.8773
5 7 10 -1.3178 -0.6051
5 7 11 -6.9177 -0.0518
5 7 12 -5.2496 0.0560
5 7 13 -4.6479 0.7851
5 7 14 1.8625 0.6083
5 7 15 13.0537 -1.0868
5 7 16 17.5382 -1.4480
5 8 0 -2.9958 -0.0813
5 8 1 -16.9603 -0.2090
5 8 2 -12.9092 0.2997
5 8 3 -15.4336 0.3195
5 8 4 -8.0971 -0.1619
5 8 5 15.4415 0.1503
5 8 6 16.3583 0.2832
5 8 7 3.9228 -0.1670
5 8 8 -2.4396 -0.5923
5 8 9 -6.7645 -0.1929
5 8 10 -5.9260 0.3411
5 8 11 -5.5512 0.3105
5 8 12 -7.0561 0.6767
5 8 13 -2.1373 0.3758
5 8 14 -2.0681 0.8943
5 8 15 -4.2303 3.2658
5 8 16 -2.0250 3.4390
5 9 0 -5.3278 0.1377
5 9 1 7.2088 -0.0502
5 9 2 2.9910 -0.4496
5 9 3 5.1091 0.0091
5 9 4 3.9185 1.0185
5 9 5 -7.3831 1.0420
5 9 6 -3.1089 0.6145
5 9 7 5.3698 0.5077
5 9 8 6.3083 1.0198
5 9 9 3.4232 0.7515
5 9 10 -2.9151 -0.0531
5 9 11 -3.5985 0.2668
5 9 12 -3.2819 0.1707
5 9 13 -8.3859 0.1401
5 9 14 -3.5085 -0.7698
5 10 0 2.4708 -0.9128
5 10 1 -14.6321 0.0179
5 10 2 -9.7985 1.3799
5 10 3 -7.0052 1.8691
5 10 4 -6.2502 1.4041
5 10 5 -1.7970 1.0332
5 10 6 -6.8171 1.0605
5 10 7 -8.5248 1.3063
5 10 8 -5.1618 0.3460
5 10 9 -1.6499 -0.3789
5 10 10 3.5679 0.1834
5 10 11 3.5984 -0.0471
5 10 12 7.7535 0.4215
5 10 13 17.6363 1.0471
5 10 14 11.2020 1.2037
5 11 0 -11.3839 1.2300
5 11 1 -0.6629 1.3617
5 11 2 -7.9231 1.0877
5 11 3 -10.8701 0.9422
5 11 4 -6.3622 0.9768
5 11 5 -1.3540 1.0163
5 11 6 7.5874 0.4246
5 11 7 7.2705 -1.2073
5 11 8 3.7168 -1.1932
5 11 9 2.2841 -0.2407
5 11 10 -2.9059 -0.9067
5 11 11 -7.5478 -1.1889
5 11 12 -19.8206 -1.7934
5 11 13 -34.9213 -2.0807
5 12 0 -1.2729 -0.4002
5 12 1 -14.2079 0.3424
5 12 2 -8.8290 0.8580
5 12 3 -2.0862 0.9683
5 12 4 1.4038 0.6898
5 12 5 3.5689 -0.2138
5 12 6 0.5497 -0.5698
5 12 7 3.3172 0.7879
5 12 8 3.9332 0.4826
5 12 9 -1.1211 -1.6380
5 12 10 -2.6119 -1.2673
5 12 11 -3.0665 0.6328
5 12 12 4.2267 3.2891
5 13 0 -3.1256 -0.6179
5 13 1 5.5209 0.3380
5 13 2 3.9927 1.1591
5 13 3 2.5051 1.0253
5 13 4 1.0092 0.4265
5 13 5 -1.3523 0.8091
5 13 6 0.4923 1.2480
5 13 7 -2.1877 0.0457
5 13 8 -2.9784 0.2964
5 13 9 0.7151 3.0918
5 13 10 0.4600 3.5802
5 13 11 -0.2565 1.5788
5 14 0 3.1555 0.8411
5 14 1 0.0615 -0.1725
5 14 2 2.7399 -1.3618
5 14 3 4.1588 -0.9262
5 14 4 5.5199 0.5621
5 14 5 6.2315 0.9978
5 14 6 1.6625 0.8215
5 14 7 0.6148 1.5337
5 14 8 0.8430 0.8471
5 14 9 -0.6116 -2.6340
5 15 0 0.4594 -0.3002
5 15 1 -0.9879 0.5672
5 15 2 -3.4122 1.3302
5 15 3 -3.6515 0.5951
5 15 4 -4.4290 -0.7817
5 15 5 -5.2282 -1.0766
5 15 6 -1.8046 -1.1808
6 -10 0 3.4036 0.7541
6 -10 1 7.1384 0.0281
6 -10 2 6.4989 -3.1552
6 -10 3 -0.4510 -1.2610
6 -10 4 -1.4863 -0.7210
6 -10 5 2.8795 -0.8950
6 -10 6 12.4436 1.0145
6 -9 0 -2.9074 -0.2498
6 -9 1 -8.7917 -0.4642
6 -9 2 -9.6109 1.5415
6 -9 3 -0.9610 -0.3322
6 -9 4 -0.7093 -0.8049
6 -9 5 -4.4946 -0.2175
6 -9 6 -10.9205 -0.8691
6 -9 7 -11.6369 0.2384
6 -9 8 -2.0912 1.3495
6 -9 9 0.3038 5.2475
6 -8 0 4.2174 -0.0508
6 -8 1 7.0357 0.1815
6 -8 2 4.5333 -1.4315
6 -8 3 -7.7365 -0.8530
6 -8 4 -6.4971 -1.0027
6 -8 5 -1.4299 -1.1474
6 -8 6 2.9537 0.1468
6 -8 7 7.2227 0.0907
6 -8 8 3.9820 0.3525
6 -8 9 3.1582 -2.1682
6 -8 10 4.5438 -3.5483
6 -8 11 -0.3232 -0.1445
6 -7 0 5.0000 0.6788
6 -7 1 0.0543 -0.8090
6 -7 2 0.6207 -1.1142
6 -7 3 11.8437 -1.4678
6 -7 4 6.7759 -0.9392
6 -7 5 0.2665 -0.6251
6 -7 6 0.8516 -1.0779
6 -7 7 -1.8380 -0.1944
6 -7 8 -1.6849 0.1018
6 -7 9 -0.9931 1.9493
6 -7 10 -1.1038 2.9466
6 -7 11 2.1000 0.2449
6 -7 12 0.9331 -3.8891
6 -6 0 -1.1144 -1.2229
6 -6 1 1.4737 -0.9584
6 -6 2 -3.3816 -0.6670
6 -6 3 -17.1976 -0.9048
6 -6 4 -9.6926 -1.4051
6 -6 5 -0.3162 -1.1738
6 -6 6 -3.2133 -0.3662
6 -6 7 -1.8114 -0.3713
6 -6 8 0.7036 0.2193
6 -6 9 0.2379 -0.0450
6 -6 10 -1.8267 -0.5601
6 -6 11 -5.0337 -0.2987
6 -6 12 -1.2479 2.0841
6 -6 13 3.8743 2.7854
6 -5 0 11.2713 0.3351
6 -5 1 6.7110 -0.4597
6 -5 2 8.9982 -1.4863
6 -5 3 19.2013 -1.3423
6 -5 4 7.9387 -0.8813
6 -5 5 -3.1101 -0.8090
6 -5 6 2.4426 -0.7336
6 -5 7 3.7829 -0.1171
6 -5 8 0.0576 0.1573
6 -5 9 -1.4026 0.1384
6 -5 10 -0.2531 -0.3931
6 -5 11 2.4341 -0.1640
6 -5 12 -1.7845 -2.0454
6 -5 13 -6.7896 -3.8461
6 -5 14 -1.9312 -1.7500
6 -4 0 0.6147 -0.9722
6 -4 1 5.4877 -1.0208
6 -4 2 0.9119 -0.4762
6 -4 3 -13.6677 -0.7215
6 -4 4 -8.5832 -0.9965
6 -4 5 -1.7015 -1.0267
6 -4 6 -7.9848 -0.8837
6 -4 7 -7.7788 -0.4462
6 -4 8 -0.7410 -0.2051
6 -4 9 4.6469 0.0349
6 -4 10 7.0371 0.7754
6 -4 11 4.3325 -0.4214
6 -4 12 4.6512 -0.0589
6 -4 13 6.3744 1.9888
6 -4 14 0.9642 1.3255
6 -4 15 -0.7654 2.1805
6 -3 0 8.2922 -0.3476
6 -3 1 -10.3004 -0.6126
6 -3 2 -19.5982 -1.0880
6 -3 3 -8.2366 -1.0403
6 -3 4 -3.5421 -0.9831
6 -3 5 1.8805 -0.6219
6 -3 6 14.6651 -0.2624
6 -3 7 16.0958 -0.6928
6 -3 8 9.1302 -0.6077
6 -3 9 2.0172 -0.2028
6 -3 10 -5.5516 -0.8121
6 -3 11 -6.4202 0.0466
6 -3 12 -5.8087 0.1911
6 -3 13 -6.7774 -1.3562
6 -3 14 -2.1521 -0.9906
6 -3 15 -0.3145 -0.7276
6 -3 16 -0.6484 -0.6156
6 -2 0 -6.0734 0.4199
6 -2 1 7.8454 0.0429
6 -2 2 16.5755 -0.5394
6 -2 3 4.2130 -0.9480
6 -2 4 -0.9580 -0.7045
6 -2 5 -1.3210 -0.7736
6 -2 6 -6.0250 -0.9883
6 -2 7 -2.7796 -0.2757
6 -2 8 1.8277 -0.0371
6 -2 9 2.5579 -0.4756
6 -2 10 6.5887 -0.0235
6 -2 11 5.0683 -0.2140
6 -2 12 1.2946 -0.5222
6 -2 13 3.0049 0.0438
6 -2 14 2.4389 0.0524
6 -2 15 3.1078 -0.2366
6 -2 16 1.5540 -0.4450
6 -1 0 -10.0337 0.2039
6 -1 1 -20.2641 -0.9135
6 -1 2 -24.2985 -1.2351
6 -1 3 -6.1970 -1.1715
6 -1 4 -0.8545 -1.3718
6 -1 5 -6.4988 -1.0522
6 -1 6 -3.2002 -0.3970
6 -1 7 -1.4654 -0.4342
6 -1 8 -0.0409 -0.2835
6 -1 9 2.8838 0.5330
6 -1 10 -3.4573 0.8040
6 -1 11 -6.1534 0.4179
6 -1 12 -3.8986 -0.0103
6 -1 13 -6.6338 -0.2504
6 -1 14 -6.3593 -0.7032
6 -1 15 -6.2216 -0.4613
6 -1 16 -3.0040 0.4601
6 -1 17 3.4951 -0.2093
6 0 0 26.6277 -0.9305
6 0 1 17.1502 -1.2156
6 0 2 0.4499 -1.4788
6 0 3 -28.8205 -1.4531
6 0 4 -24.8135 -0.8572
6 0 5 2.0884 -0.5533
6 0 6 8.2098 -0.6161
6 0 7 3.4672 -0.3425
6 0 8 -2.1308 0.2325
6 0 9 -10.1801 0.4699
6 0 10 -8.7905 0.0943
6 0 11 -8.8782 0.2623
6 0 12 -10.6059 0.4902
6 0 13 -2.9733 -0.2654
6 0 14 1.5665 0.0697
6 0 15 4.9269 0.4223
6 0 16 4.6248 -0.2672
6 0 17 -1.1118 0.4961
6 1 0 -36.8621 -0.8168
6 1 1 -36.1261 -1.1810
6 1 2 -27.4281 -1.0747
6 1 3 -0.6394 -0.6380
6 1 4 -3.0003 -0.4010
6 1 5 -19.7554 -0.2178
6 1 6 -0.5505 -0.0196
6 1 7 23.6488 0.2230
6 1 8 24.0491 0.0369
6 1 9 16.6639 -0.4875
6 1 10 6.2014 0.0299
6 1 11 5.6061 0.1170
6 1 12 9.7994 -0.3512
6 1 13 3.1479 0.5674
6 1 14 1.0186 0.5180
6 1 15 0.5655 -0.0275
6 1 16 0.3762 0.4023
6 1 17 3.8536 -0.4410
6 2 0 16.6660 -0.2862
6 2 1 7.0107 -0.4680
6 2 2 2.2100 -0.4403
6 2 3 -13.8919 -0.5095
6 2 4 -1.1232 -0.5521
6 2 5 18.1587 -0.4034
6 2 6 -11.4201 -0.0572
6 2 7 -40.0092 -0.2141
6 2 8 -26.1775 -0.4250
6 2 9 -5.0751 0.0974
6 2 10 4.3273 -0.2718
6 2 11 -4.5279 -0.4307
6 2 12 -15.5289 0.4385
6 2 13 -7.4924 0.0328
6 2 14 -1.6510 -0.1800
6 2 15 0.5262 -0.0363
6 2 16 2.3228 -0.7715
6 2 17 -0.8837 -0.7096
6 3 0 -3.9056 -0.6310
6 3 1 -11.7465 -0.3161
6 3 2 -29.7592 -0.4631
6 3 3 -22.0271 -0.4317
6 3 4 -20.6732 0.0160
6 3 5 -13.4531 0.3198
6 3 6 40.2574 -0.0972
6 3 7 72.6641 -0.4059
6 3 8 40.9897 -0.3078
6 3 9 2.0731 -0.7250
6 3 10 -14.2393 -0.2949
6 3 11 -6.7946 0.5466
6 3 12 4.4755 0.2577
6 3 13 -3.4442 0.2280
6 3 14 -6.2411 -0.0050
6 3 15 -0.9811 -0.6639
6 3 16 2.8869 -0.6213
6 3 17 7.0662 -0.2496
6 4 0 -6.5552 0.1636
6 4 1 -8.8410 -0.8461
6 4 2 11.1855 -0.7398
6 4 3 8.5977 -0.0488
6 4 4 10.6371 0.2843
6 4 5 11.6763 0.1040
6 4 6 -26.1511 -0.0203
6 4 7 -42.2035 -0.1785
6 4 8 -6.5144 -0.6020
6 4 9 17.6922 -0.1988
6 4 10 13.8705 0.3185
6 4 11 -3.6472 0.1855
6 4 12 -15.9832 0.2879
6 4 13 -3.9509 0.1930
6 4 14 4.3057 -0.1405
6 4 15 0.6258 -0.2617
6 4 16 -3.8647 -0.2459
6 4 17 -8.7394 -0.3707
6 5 0 -0.3557 -0.9652
6 5 1 -6.3201 -0.4309
6 5 2 -30.7068 -0.0824
6 5 3 -22.3995 -0.1060
6 5 4 -10.0233 -0.2483
6 5 5 -0.8263 -0.2135
6 5 6 33.5662 -0.0617
6 5 7 40.9060 -0.0376
6 5 8 4.6443 0.2835
6 5 9 -13.1987 0.3444
6 5 10 -9.5996 -0.0332
6 5 11 -2.5161 -0.0003
6 5 12 2.9666 0.0789
6 5 13 -6.1038 -0.2291
6 5 14 -7.3134 -0.3486
6 5 15 3.8964 0.2136
6 5 16 11.9950 0.8321
6 5 17 14.8793 1.1794
6 6 0 0.6937 -0.8669
6 6 1 -4.4121 -0.6783
6 6 2 10.4190 -0.4428
6 6 3 2.2765 -0.0368
6 6 4 -0.0816 0.6236
6 6 5 6.6977 1.0115
6 6 6 -10.2388 0.5836
6 6 7 -12.2552 0.2452
6 6 8 8.8623 0.1125
6 6 9 3.6730 -0.0055
6 6 10 -12.8084 0.1562
6 6 11 -18.0229 -0.1179
6 6 12 -17.7229 -0.8121
6 6 13 -5.0289 -0.6411
6 6 14 1.6884 0.1637
6 6 15 -3.2945 -0.1209
6 6 16 -7.2370 -1.2049
6 6 17 -8.7769 -1.7589
6 7 0 -2.8582 -0.7039
6 7 1 -7.4581 -0.5560
6 7 2 -25.5747 0.0297
6 7 3 -17.6103 0.6123
6 7 4 -10.9719 0.4054
6 7 5 -8.0561 -0.1900
6 7 6 15.8396 0.1129
6 7 7 20.7179 0.3954
6 7 8 0.8307 0.0853
6 7 9 1.6274 -0.2215
6 7 10 9.7514 -0.6332
6 7 11 8.4044 -0.6739
6 7 12 8.2333 0.0914
6 7 13 1.7881 0.4909
6 7 14 -1.0550 -0.2206
6 7 15 3.1271 -0.2525
6 7 16 5.6401 0.7976
6 8 0 -7.7835 -0.2225
6 8 1 -15.5209 0.0326
6 8 2 -6.5012 -0.0212
6 8 3 -12.5695 -0.4166
6 8 4 -10.9011 -0.3906
6 8 5 -7.7207 0.1044
6 8 6 -26.5397 -0.1184
6 8 7 -28.6417 -0.3151
6 8 8 -8.9351 -0.1805
6 8 9 -6.6981 -0.5012
6 8 10 -11.7532 -0.9226
6 8 11 -10.4359 -0.9104
6 8 12 -10.9357 -0.6282
6 8 13 -6.2026 -0.4135
6 8 14 -2.2422 0.2618
6 8 15 -0.1419 0.2261
6 8 16 3.8634 -1.1771
6 9 0 -2.5599 0.2775
6 9 1 -5.0264 0.1738
6 9 2 -17.9833 -0.0244
6 9 3 -9.8294 -0.0416
6 9 4 -2.1608 -0.0060
6 9 5 7.2066 -0.0339
6 9 6 32.2965 0.3372
6 9 7 35.7684 0.0653
6 9 8 15.2988 -0.6087
6 9 9 4.9742 -0.6523
6 9 10 0.5505 -0.0509
6 9 11 -6.1022 0.4512
6 9 12 -9.1249 -0.0147
6 9 13 -11.1758 -0.0286
6 9 14 -6.5599 0.3220
6 9 15 -0.5657 0.7657
6 10 0 1.2013 -0.0172
6 10 1 -2.3199 0.0871
6 10 2 7.4205 0.1289
6 10 3 1.4223 0.3707
6 10 4 -1.4773 0.6427
6 10 5 -2.4463 0.6208
6 10 6 -15.8473 0.0433
6 10 7 -16.3169 0.0767
6 10 8 -4.7249 0.1503
6 10 9 -1.2947 0.0643
6 10 10 -0.0051 -0.0131
6 10 11 3.3525 -0.1060
6 10 12 6.1851 1.4750
6 10 13 8.4781 2.4707
6 10 14 4.2386 1.6321
6 11 0 2.1690 -0.7340
6 11 1 -2.1237 -0.9077
6 11 3 -13.2370 0.3620
6 11 4 -9.1141 0.5584
6 11 5 -10.0163 0.7740
6 11 6 -3.2291 1.1274
6 11 7 -1.3289 0.5916
6 11 8 -1.3686 0.4300
6 11 9 1.0258 0.2100
6 11 10 -2.1492 -0.3038
6 11 11 -6.3844 0.4431
6 11 12 -8.3350 -0.3535
6 11 13 -8.0195 -1.5417
6 11 14 -2.3355 -1.0773
6 12 0 -8.0756 -0.2585
6 12 1 -10.8149 0.3166
6 12 2 -2.3444 0.1012
6 12 3 -6.3898 0.1707
6 12 4 -6.9906 0.5131
6 12 5 3.6649 0.3745
6 12 6 11.0468 -0.2203
6 12 7 14.5522 0.0187
6 12 8 8.6197 -0.2465
6 12 9 1.4228 0.0760
6 12 10 3.1305 1.2986
6 12 11 2.5866 -0.0178
6 12 12 -2.6425 -0.5063
6 12 13 -8.3072 0.6858
6 13 0 -0.6522 0.5852
6 13 1 -3.1710 -0.1770
6 13 2 -11.4465 0.1615
6 13 3 -5.9473 0.4597
6 13 4 0.4970 0.3198
6 13 5 -3.0123 0.2026
6 13 6 -7.3697 0.0532
6 13 7 -9.1000 -0.9801
6 13 8 -2.0545 -1.1370
6 13 9 1.7347 -1.6526
6 13 10 -5.7288 -3.1540
6 13 11 -8.6099 -1.0592
6 14 0 1.5259 -3.6882
6 14 1 -0.1212 -0.5969
6 14 2 4.0713 1.3054
6 14 3 2.6190 1.5607
6 14 4 1.9696 0.6685
6 14 5 7.6606 -0.4395
6 14 6 12.2135 -0.4449
6 14 7 12.7530 1.2584
6 14 8 4.5483 2.1440
6 14 9 -0.4607 2.6946
6 15 0 0.1385 2.4881
6 15 1 3.5287 -0.5952
6 15 2 3.4271 -2.7210
6 15 3 4.5375 -2.6274
6 15 4 4.2004 -0.5727
6 15 5 -0.0770 1.9849
6 15 6 -4.0982 2.7001
7 -9 0 2.7796 -3.1638
7 -9 1 0.2418 -1.4919
7 -9 2 1.1173 1.3993
7 -9 3 -2.2576 -1.6985
7 -9 4 -7.8972 0.9116
7 -9 5 -8.7913 2.0807
7 -9 6 -6.9146 -1.3263
7 -9 7 2.1933 0.4236
7 -8 0 -0.7916 2.5427
7 -8 1 0.4171 1.7511
7 -8 2 -0.8886 -1.4049
7 -8 3 2.0747 0.4923
7 -8 4 9.1257 -1.9204
7 -8 5 9.9100 -3.3220
7 -8 6 7.9357 -0.3208
7 -8 7 0.1218 -0.9769
7 -8 8 -5.7195 -1.3452
7 -8 9 -1.3027 -1.5856
7 -7 0 5.6353 0.0739
7 -7 1 3.1872 -0.4332
7 -7 2 3.4301 1.1392
7 -7 3 0.0738 -1.1991
7 -7 4 -9.7847 -0.7123
7 -7 5 -11.5444 0.2365
7 -7 6 -8.5562 -0.7996
7 -7 7 -1.4403 1.1062
7 -7 8 7.2163 2.0727
7 -7 9 7.5076 2.9830
7 -7 10 4.3867 2.5621
7 -7 11 1.6569 0.1392
7 -6 0 0.1405 -0.1170
7 -6 1 1.9018 0.3712
7 -6 2 -4.7469 -1.3196
7 -6 3 -8.1332 -0.5960
7 -6 4 1.8865 -0.6089
7 -6 5 6.3088 -0.9294
7 -6 6 4.9186 -0.4960
7 -6 7 1.8860 -1.5386
7 -6 8 -5.1272 -0.9487
7 -6 9 -8.7253 -0.7901
7 -6 10 -7.2083 -0.8074
7 -6 11 -3.4320 0.1133
7 -6 12 0.2066 1.1354
7 -6 13 -1.1446 -0.9094
7 -5 0 3.2249 1.3826
7 -5 1 -1.6373 0.1475
7 -5 2 7.4177 0.2044
7 -5 3 16.0225 -0.5673
7 -5 4 8.2431 -1.3236
7 -5 5 4.6191 -1.5120
7 -5 6 6.0792 -1.0867
7 -5 7 3.1292 0.2329
7 -5 8 2.4226 -0.0619
7 -5 9 3.8118 -0.1511
7 -5 10 3.0461 0.0146
7 -5 11 0.4666 -0.3932
7 -5 12 -2.1669 -2.4029
7 -5 13 0.4133 -1.8724
7 -5 14 3.4818 1.6791
7 -4 0 3.3277 0.1870
7 -4 1 13.7539 0.0723
7 -4 2 4.4831 -0.7026
7 -4 3 -8.8499 -1.2900
7 -4 4 -6.6479 -1.0670
7 -4 5 -7.9946 -0.5670
7 -4 6 -11.9849 -0.4537
7 -4 7 -5.2269 -0.5600
7 -4 8 1.3596 0.2500
7 -4 9 0.8470 0.5681
7 -4 10 -0.8026 0.1632
7 -4 11 -0.6948 -0.8904
7 -4 12 1.8676 0.3657
7 -4 13 0.9566 0.9169
7 -4 14 -2.1503 -1.8706
7 -4 15 0.1636 -0.8738
7 -3 0 9.2203 -0.6577
7 -3 1 -3.8245 -1.0087
7 -3 2 -1.1001 -1.1779
7 -3 3 5.4126 -0.9929
7 -3 4 -0.1873 -1.0089
7 -3 5 1.8182 -0.9826
7 -3 6 8.3328 -0.5346
7 -3 7 2.8496 -0.0153
7 -3 8 -2.5003 0.1586
7 -3 9 0.9095 0.2035
7 -3 10 4.5555 0.0994
7 -3 11 5.3246 1.0552
7 -3 12 1.2976 0.0098
7 -3 13 -1.6430 -1.5207
7 -3 14 -0.1039 0.3336
7 -3 15 -1.1895 0.6322
7 -2 0 3.3847 0.3903
7 -2 1 5.3900 0.0908
7 -2 2 -8.5971 -0.1706
7 -2 3 -20.5060 -0.4600
7 -2 4 -11.9003 -0.5858
7 -2 5 -4.2426 -0.5512
7 -2 6 -0.3432 -0.3295
7 -2 7 10.3430 -0.0821
7 -2 8 12.5938 -0.1941
7 -2 9 1.8365 -0.1326
7 -2 10 -6.1968 0.3883
7 -2 11 -9.1720 -0.5039
7 -2 12 -5.4271 -0.5115
7 -2 13 0.5865 0.7893
7 -2 14 1.7881 0.2213
7 -2 15 3.9610 -0.1693
7 -2 16 2.1800 0.2575
7 -1 0 -11.2350 0.4683
7 -1 1 -16.3207 0.1922
7 -1 2 -4.3532 -0.3864
7 -1 3 8.6121 -0.9656
7 -1 4 2.7583 -0.9511
7 -1 5 -1.6633 -0.3986
7 -1 6 -1.1870 -0.1685
7 -1 7 -7.3228 -0.0986
7 -1 8 -4.8045 0.3381
7 -1 9 8.5064 0.3410
7 -1 10 12.9401 -0.3959
7 -1 11 11.1879 -0.2057
7 -1 12 5.1561 0.1304
7 -1 13 -2.1336 -0.5685
7 -1 14 -2.2491 -0.7741
7 -1 15 -2.6310 -0.0749
7 -1 16 -0.1744 -0.0327
7 0 0 10.9413 0.3168
7 0 1 13.1557 -0.1847
7 0 2 0.2530 -0.7365
7 0 3 -14.9638 -0.7505
7 0 4 -10.3255 -0.6054
7 0 5 -5.2949 -0.6415
7 0 6 -4.6539 -0.2018
7 0 7 6.5215 0.1420
7 0 8 9.8009 -0.0348
7 0 9 -3.2046 0.0102
7 0 10 -10.8457 0.4184
7 0 11 -14.3963 0.6602
7 0 12 -12.8886 0.3016
7 0 13 -5.4493 0.1337
7 0 14 -2.7430 0.5320
7 0 15 1.5268 -0.2702
7 0 16 2.2042 -0.6439
7 0 17 -0.6291 1.1856
7 1 0 2.7024 0.6627
7 1 1 -10.1065 -0.1449
7 1 2 -15.9953 -0.5593
7 1 3 -11.5617 -0.7523
7 1 4 -14.7828 -0.8004
7 1 5 -7.6765 -0.4576
7 1 6 9.2528 -0.4449
7 1 7 4.8792 -0.2610
7 1 8 -5.5875 0.1574
7 1 9 -1.7261 0.3785
7 1 10 -0.6846 0.7508
7 1 11 -0.0963 0.4128
7 1 12 -0.3200 0.1584
7 1 13 -3.7694 0.3283
7 1 14 -0.3668 -0.5382
7 1 15 -0.9597 -0.2404
7 1 16 -1.3822 0.3200
7 1 17 0.9222 -1.2454
7 2 0 -7.3862 -0.1456
7 2 1 -5.4674 -0.2193
7 2 2 -6.1218 -0.4111
7 2 3 -18.3426 -0.7856
7 2 4 -16.7356 -0.7538
7 2 5 -15.5230 -0.6623
7 2 6 -21.6097 -0.2125
7 2 7 -3.6906 0.0113
7 2 8 17.7641 0.1209
7 2 9 11.6955 0.2633
7 2 10 1.7168 -0.4489
7 2 11 -3.9025 -0.3274
7 2 12 -3.7205 0.2481
7 2 13 1.4624 0.0552
7 2 14 -1.7802 0.8731
7 2 15 0.1722 1.1129
7 2 16 3.2372 0.7212
7 2 17 1.0748 1.5248
7 3 0 9.6550 0.3465
7 3 1 -2.5109 -0.2728
7 3 2 -14.9462 -0.9519
7 3 3 -3.4312 -0.7814
7 3 4 1.7548 -0.4880
7 3 5 5.8624 0.0048
7 3 6 18.4103 0.2296
7 3 7 5.4046 0.3086
7 3 8 -13.3148 0.0103
7 3 9 -2.3634 -0.5829
7 3 10 8.0763 -0.1037
7 3 11 5.8671 0.1176
7 3 12 -2.3316 -0.0381
7 3 13 -9.4014 0.7740
7 3 14 -1.4808 1.0338
7 3 15 1.3752 0.9018
7 3 16 -0.4627 0.6523
7 3 17 2.1443 -0.2234
7 4 0 -2.1110 -0.6504
7 4 1 -2.1812 -0.5669
7 4 2 -0.4153 -0.2558
7 4 3 -20.4306 -0.4527
7 4 4 -22.1631 -0.3043
7 4 5 -7.2723 -0.0718
7 4 6 0.0238 0.1368
7 4 7 22.0035 0.0744
7 4 8 36.5067 -0.1255
7 4 9 11.8125 -0.0477
7 4 10 -9.9311 -0.2300
7 4 11 -11.7257 -0.0131
7 4 12 -5.8749 0.7591
7 4 13 0.3543 0.8585
7 4 14 -5.4721 0.3760
7 4 15 -3.3568 -0.1058
7 4 16 4.4055 -0.3264
7 4 17 3.2307 -0.7050
7 5 0 9.9132 0.0736
7 5 1 -2.4321 -0.5629
7 5 2 -15.0348 -0.9557
7 5 3 1.8985 -0.4690
7 5 4 7.5415 -0.0001
7 5 5 0.1522 0.2562
7 5 6 4.5436 0.1449
7 5 7 -4.0922 -0.2222
7 5 8 -11.3207 -0.3611
7 5 9 8.9262 -0.3576
7 5 10 15.3556 -0.3163
7 5 11 2.2583 0.0377
7 5 12 -6.9498 0.4226
7 5 13 -10.2870 0.3320
7 5 14 -2.0574 0.2296
7 5 15 -2.0517 -0.3988
7 5 16 -8.8882 -1.7360
7 5 17 -6.6301 -1.5272
7 6 0 -10.3420 -0.2351
7 6 1 -6.5087 -0.4306
7 6 2 -2.4162 -0.4129
7 6 3 -20.7644 -0.3332
7 6 4 -20.4235 -0.1279
7 6 5 -4.0256 -0.0636
7 6 6 -0.4191 -0.0375
7 6 7 11.3664 0.1576
7 6 8 17.7891 0.0144
7 6 9 -3.0962 -0.2929
7 6 10 -10.4271 0.3355
7 6 11 -3.4947 0.6963
7 6 12 -5.6405 -0.0051
7 6 13 -6.5378 -0.1765
7 6 14 -7.5169 -0.2889
7 6 15 1.3559 0.2103
7 6 16 13.9633 2.3084
7 6 17 12.9408 2.8053
7 7 0 11.2400 -0.6340
7 7 1 -0.8419 -0.2284
7 7 2 -11.6770 0.0548
7 7 3 1.7576 -0.1876
7 7 4 5.3117 -0.3631
7 7 5 4.2390 -0.1656
7 7 6 16.2757 -0.0513
7 7 7 11.9911 -0.4059
7 7 8 1.8925 -0.2795
7 7 9 8.0806 0.6541
7 7 10 -0.8416 0.4528
7 7 11 -14.6110 0.0109
7 7 12 -7.3178 0.7196
7 7 13 1.4571 0.7014
7 7 14 6.9819 0.6578
7 7 15 3.1632 0.6751
7 7 16 -6.3460 -1.2324
7 8 0 -4.5115 -0.5480
7 8 1 -4.5204 -1.2620
7 8 2 -5.5867 -1.4755
7 8 3 -20.6123 -0.5689
7 8 4 -18.8179 0.0581
7 8 5 -12.3851 -0.0870
7 8 6 -17.1118 -0.2024
7 8 7 -7.1956 0.4450
7 8 8 2.6642 0.8025
7 8 9 -6.2397 -0.0294
7 8 10 -1.9567 -0.2060
7 8 11 7.0065 -0.0751
7 8 12 -2.6398 -0.8272
7 8 13 -9.9280 -0.6585
7 8 14 -11.2966 -0.3989
7 8 15 -6.3565 -1.2254
7 8 16 3.0326 -0.8198
7 9 0 -0.3823 -0.7228
7 9 1 -10.0396 -0.1741
7 9 2 -17.5503 0.1668
7 9 3 -8.7160 -0.5463
7 9 4 -8.9845 -0.9011
7 9 5 -6.1377 -0.4719
7 9 6 6.7159 0.0821
7 9 7 2.7465 -0.0210
7 9 8 -2.6291 -0.1741
7 9 9 5.8094 0.1413
7 9 10 0.2257 -0.2695
7 9 11 -9.9644 -0.7690
7 9 12 -2.8683 -0.4348
7 9 13 3.4594 -0.6550
7 9 14 5.6780 -1.0715
7 9 15 4.5508 -0.0496
7 10 0 -0.5874 1.0420
7 10 1 -0.2335 0.3711
7 10 2 1.7841 -0.2795
7 10 3 -6.1118 -0.1925
7 10 4 -0.1041 -0.2393
7 10 5 6.7294 -0.3681
7 10 6 4.9147 -0.4467
7 10 7 12.0340 -0.3335
7 10 8 12.2023 -0.6286
7 10 9 -1.5668 -0.9816
7 10 10 -2.8990 -0.6352
7 10 11 1.1938 -0.5633
7 10 12 -6.2267 -0.6456
7 10 13 -11.1925 0.0510
7 10 14 -10.7424 1.4418
7 10 15 -5.6432 1.8175
7 11 0 5.9456 -0.4388
7 11 1 0.0670 0.1418
7 11 2 -8.6604 0.3059
7 11 3 -2.5821 -0.0161
7 11 4 -3.8452 -0.0748
7 11 5 -6.5665 -0.2657
7 11 6 -3.7378 -0.4155
7 11 7 -7.7823 -0.5911
7 11 8 -6.1185 -0.3295
7 11 9 2.5447 -0.6796
7 11 10 0.2397 -1.4295
7 11 11 -4.5436 -0.3676
7 11 12 -0.6342 1.1183
7 11 13 2.7336 1.9574
7 11 14 3.9635 1.4869
7 12 0 -2.9302 -0.3205
7 12 1 -4.6665 -0.7897
7 12 2 0.6196 -0.7794
7 12 3 -6.6531 -0.4066
7 12 4 -6.8821 -0.1378
7 12 5 -1.4037 0.5178
7 12 6 0.6258 0.6928
7 12 7 5.2082 0.3556
7 12 8 4.2534 -0.6147
7 12 9 0.8441 -0.0529
7 12 10 3.5657 1.7444
7 12 11 3.6795 1.3593
7 12 12 -0.9037 0.6953
7 12 13 -3.7215 -0.0268
7 13 0 3.2416 -0.2089
7 13 1 2.5849 -0.3861
7 13 2 -9.8217 -0.5807
7 13 3 -9.0462 -0.4357
7 13 4 -7.5997 0.0305
7 13 5 -8.1948 -0.2971
7 13 6 -3.9431 -0.3209
7 13 7 -0.8958 0.2155
7 13 8 2.1731 1.7088
7 13 9 0.0898 1.6930
7 13 10 -5.9519 0.0232
7 13 11 -5.8930 0.3483
7 14 0 -7.4498 1.4992
7 14 1 -14.7720 0.5229
7 14 2 -4.1889 -0.2883
7 14 3 -0.2142 -0.8233
7 14 4 2.7351 -1.3850
7 14 5 7.7426 -1.2054
7 14 6 7.5581 -1.5377
7 14 7 5.7910 -2.3115
7 14 8 3.4073 -3.6720
7 14 9 5.6789 -3.4148
7 14 10 7.5963 -1.4043
7 15 0 9.9086 -6.0487
7 15 1 16.7098 -3.3221
7 15 2 4.9035 -0.0360
7 15 3 -0.5853 1.6460
7 15 4 -0.0538 1.9312
7 15 5 0.5559 1.1178
7 15 6 3.4256 1.2273
7 15 7 4.1189 2.2986
8 -8 0 1.2353 2.5756
8 -8 1 0.7539 1.2862
8 -8 2 1.7789 -0.2144
8 -8 3 7.1347 3.7051
8 -8 4 8.5085 -0.9715
8 -8 5 9.5963 -2.2536
8 -8 6 9.2065 -0.8246
8 -8 7 -0.1625 -5.1647
8 -7 0 2.2341 -1.3298
8 -7 1 3.4364 -0.7684
8 -7 2 3.0864 0.7973
8 -7 3 0.6701 -3.2377
8 -7 4 1.1261 -0.3039
8 -7 5 -1.5663 0.6389
8 -7 6 -6.2028 -0.9699
8 -7 7 -0.1198 2.6952
8 -7 8 4.0487 3.2096
8 -7 9 0.6112 2.9507
8 -7 10 -0.4612 2.5069
8 -6 0 0.3557 0.8085
8 -6 1 -0.8433 1.4994
8 -6 2 -2.2777 -0.2797
8 -6 3 -3.9772 2.0443
8 -6 4 -7.2364 -0.3039
8 -6 5 -5.5455 -1.2621
8 -6 6 2.1697 0.5232
8 -6 7 1.9834 -0.9635
8 -6 8 -1.1855 -0.6839
8 -6 9 -0.4152 -0.9087
8 -6 10 -0.9141 -0.6279
8 -6 11 -1.8298 0.9182
8 -5 0 1.4887 0.8682
8 -5 1 0.8659 0.4111
8 -5 2 -0.8939 1.7514
8 -5 3 -1.6587 -0.0734
8 -5 4 1.7958 0.3089
8 -5 5 6.5318 0.2166
8 -5 6 4.5033 -1.2685
8 -5 7 1.6057 -0.6894
8 -5 8 -0.0102 -0.7512
8 -5 9 -1.8809 0.3661
8 -5 10 -1.5981 0.4495
8 -5 11 -0.7588 -1.0698
8 -5 12 0.7255 -2.0563
8 -5 13 3.4129 -0.6550
8 -4 0 -2.9621 0.6264
8 -4 1 -1.9847 0.9819
8 -4 2 1.2964 -0.3646
8 -4 3 7.9530 -0.2940
8 -4 4 11.4234 -0.7492
8 -4 5 5.4990 -0.8581
8 -4 6 1.3032 -0.2997
8 -4 7 2.2851 -0.1888
8 -4 8 2.8133 0.5688
8 -4 9 0.5076 -0.0103
8 -4 10 -2.7217 -0.2475
8 -4 11 -2.9910 -0.2581
8 -4 12 -0.9145 0.0039
8 -4 13 -1.1566 -0.7132
8 -4 14 -0.7951 -2.2425
8 -3 0 1.9418 0.2478
8 -3 1 4.9762 -0.0559
8 -3 2 6.1788 -0.0152
8 -3 3 -1.7922 -0.2804
8 -3 4 -10.9348 -0.4509
8 -3 5 -6.6059 -0.4423
8 -3 6 0.0032 0.0690
8 -3 7 -0.4347 0.6159
8 -3 8 -1.0143 0.3499
8 -3 9 1.8792 0.5467
8 -3 10 4.1592 0.2678
8 -3 11 3.0720 0.5974
8 -3 12 -0.5304 0.0229
8 -3 13 -0.3541 -0.7230
8 -3 14 1.5363 0.3881
8 -3 15 0.3809 -0.7733
8 -2 0 10.6506 0.3055
8 -2 1 7.6145 0.0618
8 -2 2 -1.0234 0.1935
8 -2 3 -0.8508 -0.0246
8 -2 4 4.8483 -0.1563
8 -2 5 0.7885 0.0363
8 -2 6 -2.5331 -0.0760
8 -2 7 1.8219 -0.1341
8 -2 8 2.9862 0.2111
8 -2 9 -0.7468 0.2670
8 -2 10 -2.6739 0.4377
8 -2 11 -2.4531 -0.6223
8 -2 12 0.8726 -0.5597
8 -2 13 1.8712 0.7295
8 -2 14 -0.0797 -0.0732
8 -2 15 1.0758 0.1270
8 -1 0 -5.6416 -0.0592
8 -1 1 -10.4387 0.3440
8 -1 2 -10.7466 -0.2770
8 -1 3 -15.8522 -0.7012
8 -1 4 -19.7867 -0.7790
8 -1 5 -9.1323 -0.7650
8 -1 6 0.4345 -0.2913
8 -1 7 0.7489 0.4440
8 -1 8 3.2326 0.8040
8 -1 9 5.6423 0.7230
8 -1 10 2.2828 0.2509
8 -1 11 0.7100 0.7543
8 -1 12 -1.3542 0.4958
8 -1 13 -2.3605 -1.0209
8 -1 14 0.2944 -0.5066
8 -1 15 0.2994 0.3300
8 -1 16 1.6364 -0.3815
8 0 0 -0.0227 0.4889
8 0 1 0.7776 -0.0507
8 0 2 0.2952 -0.3377
8 0 3 5.6161 -0.3233
8 0 4 11.0089 -0.1090
8 0 5 4.3403 0.3852
8 0 6 1.7422 0.8473
8 0 7 7.1152 0.6442
8 0 8 4.6678 0.3485
8 0 9 0.7920 0.3592
8 0 10 3.6972 0.4249
8 0 11 1.2114 0.0094
8 0 12 -1.4737 -0.0777
8 0 13 -1.0039 0.9358
8 0 14 -1.8569 1.1583
8 0 15 0.9111 0.6325
8 0 16 1.2650 1.7460
8 1 0 5.2947 0.1763
8 1 1 2.5968 0.4145
8 1 2 -2.8722 0.7563
8 1 3 -11.7638 0.5203
8 1 4 -18.3892 0.2010
8 1 5 -10.8422 0.2323
8 1 6 -5.7738 0.1904
8 1 7 -8.1223 0.5452
8 1 8 -1.0869 0.5852
8 1 9 4.9481 0.1551
8 1 10 -2.2450 0.0665
8 1 11 -5.5735 0.0300
8 1 12 -6.5961 0.2841
8 1 13 -7.4139 0.2231
8 1 14 -2.5729 -0.3350
8 1 15 -1.0459 -0.5067
8 1 16 1.1419 -2.1024
8 1 17 0.8345 -3.6373
8 2 0 0.7613 1.0484
8 2 1 -0.5685 1.0326
8 2 2 -3.1138 0.0378
8 2 3 -6.5412 -0.3137
8 2 4 -5.5054 -0.0755
8 2 5 -8.8282 -0.2222
8 2 6 -4.6657 -0.0514
8 2 7 8.9664 -0.0432
8 2 8 7.5672 0.1946
8 2 9 -2.6693 0.4927
8 2 10 -2.9362 0.0256
8 2 11 -4.5045 0.1830
8 2 12 -3.5248 0.1892
8 2 13 0.4752 -0.2386
8 2 14 -1.4875 0.1478
8 2 15 -0.0740 0.2111
8 2 16 -1.0234 1.0566
8 2 17 -0.9748 2.2009
8 3 0 5.0534 0.4921
8 3 1 -3.6501 -0.1261
8 3 2 -11.9323 0.1280
8 3 3 -11.4799 -0.0394
8 3 4 -12.9662 -0.6794
8 3 5 -6.3806 -0.3607
8 3 6 0.1287 -0.0646
8 3 7 -5.5365 0.1794
8 3 8 -3.4682 0.0753
8 3 9 5.8087 -0.0838
8 3 10 4.4785 0.5038
8 3 11 3.2833 0.2810
8 3 12 -0.6116 0.1335
8 3 13 -6.1170 0.9128
8 3 14 -2.8886 1.1371
8 3 15 -2.4319 1.4448
8 3 16 1.2194 1.4420
8 3 17 3.2452 0.9676
8 4 0 -2.3888 0.1248
8 4 1 4.4725 0.7611
8 4 2 4.1273 0.1300
8 4 3 -9.9979 -0.4275
8 4 4 -11.3815 -0.0834
8 4 5 -9.0287 -0.1329
8 4 6 -7.2712 0.0469
8 4 7 6.8506 0.2468
8 4 8 14.4931 0.2727
8 4 9 8.1810 0.0622
8 4 10 4.2475 -0.4876
8 4 11 -3.1925 -0.1706
8 4 12 -5.7149 0.4650
8 4 13 -0.6851 0.6923
8 4 14 -0.9964 1.1398
8 4 15 1.4768 1.5842
8 4 16 -2.2383 1.5478
8 4 17 -6.2071 0.6930
8 5 0 13.2070 0.6103
8 5 1 -3.2955 -0.3382
8 5 2 -11.1405 -0.4897
8 5 3 3.1162 -0.3448
8 5 4 5.8193 -0.4389
8 5 5 5.0799 0.1158
8 5 6 12.6964 0.4925
8 5 7 9.0954 0.4483
8 5 8 2.9022 0.2321
8 5 9 3.3595 -0.0393
8 5 10 -0.6961 -0.3982
8 5 11 0.8187 -0.5390
8 5 12 0.5972 -0.1105
8 5 13 -6.8854 0.3652
8 5 14 -6.7273 0.9128
8 5 15 -5.1890 0.6263
8 5 16 4.3914 -0.2927
8 5 17 12.4087 -0.1053
8 6 0 -0.8013 -0.4019
8 6 1 7.6881 -0.3663
8 6 2 4.1875 -0.6458
8 6 3 -20.7730 -0.6380
8 6 4 -24.3348 -0.2137
8 6 5 -12.7130 -0.1022
8 6 6 -8.1884 -0.0218
8 6 7 1.9955 0.0576
8 6 8 10.1001 -0.0688
8 6 9 7.8391 -0.3426
8 6 10 7.3065 0.1125
8 6 11 -1.1651 0.3235
8 6 12 -8.1507 0.1986
8 6 13 -2.3462 1.0266
8 6 14 -0.6054 0.5343
8 6 15 -0.8455 -0.5653
8 6 16 -8.6593 -0.8702
8 6 17 -15.4308 -2.0073
8 7 0 -2.0132 0.2935
8 7 1 -14.0820 -0.0312
8 7 2 -16.8056 -0.0863
8 7 3 2.0668 -0.2806
8 7 4 4.7657 -0.3051
8 7 5 -2.1898 -0.1720
8 7 6 1.8349 -0.1402
8 7 7 2.9490 -0.2136
8 7 8 3.9329 -0.3923
8 7 9 7.2240 -0.1728
8 7 10 0.2923 -0.2933
8 7 11 -1.0826 0.5888
8 7 12 0.3144 1.8200
8 7 13 -7.5749 0.5574
8 7 14 -7.3752 0.5321
8 7 15 -1.9470 2.0898
8 7 16 7.5556 2.5593
8 8 0 5.5809 -0.3605
8 8 1 9.3886 -0.1535
8 8 2 5.5670 -0.1354
8 8 3 -12.0428 -0.0521
8 8 4 -10.6885 -0.3634
8 8 5 1.4487 -0.3122
8 8 6 6.2672 -0.0656
8 8 7 11.5989 -0.1081
8 8 8 8.9758 0.1728
8 8 9 -1.3681 0.3717
8 8 10 -2.0495 1.0445
8 8 11 -5.6948 0.5762
8 8 12 -9.5704 -0.5592
8 8 13 0.0332 1.0276
8 8 14 4.2275 1.2043
8 8 15 2.9726 -1.1063
8 8 16 -0.3978 -2.1205
8 9 0 -0.0111 0.1534
8 9 1 -6.9600 -0.1646
8 9 2 -10.8573 -0.5296
8 9 3 -4.2357 -0.5914
8 9 4 -7.8383 0.1443
8 9 5 -10.8828 0.0235
8 9 6 -6.8196 -0.5351
8 9 7 -8.0020 -0.2927
8 9 8 -4.7112 -0.0181
8 9 9 2.9969 0.4212
8 9 10 -0.1020 0.3900
8 9 11 -0.4782 0.8912
8 9 12 1.8571 1.5648
8 9 13 -6.0132 -0.4710
8 9 14 -6.9928 -1.4486
8 9 15 -2.5706 0.0717
8 10 0 2.4157 -0.0988
8 10 1 -0.3448 -0.4503
8 10 2 -5.2714 -0.2748
8 10 3 -13.7510 -0.4376
8 10 4 -8.4475 -1.5483
8 10 5 -3.1687 -1.4618
8 10 6 -1.1517 -0.4746
8 10 7 7.7597 0.0316
8 10 8 9.6882 0.5237
8 10 9 2.9720 0.5829
8 10 10 1.6390 0.2856
8 10 11 -2.0330 -0.7191
8 10 12 -5.4484 -1.7335
8 10 13 1.7484 -0.7905
8 10 14 2.4408 -0.4618
8 10 15 -2.3429 -1.6123
8 11 0 0.0439 0.1198
8 11 1 -2.0680 0.5674
8 11 2 -2.4726 -0.0702
8 11 3 2.9021 -0.6748
8 11 4 -0.5923 -0.3307
8 11 5 1.3640 -0.5894
8 11 6 8.0557 -0.9481
8 11 7 4.7672 -0.7853
8 11 8 1.0004 -0.8336
8 11 9 0.3548 -1.0850
8 11 10 -2.5059 -1.3571
8 11 11 -0.6757 -1.3994
8 11 12 1.2167 -1.6425
8 11 13 -4.8710 -1.8930
8 11 14 -4.5383 -0.4474
8 12 0 1.1638 0.3069
8 12 1 0.9857 -0.0320
8 12 2 0.6962 0.3835
8 12 3 -4.8791 0.5825
8 12 4 1.5832 0.1170
8 12 5 5.1107 0.1165
8 12 6 0.1984 -0.2217
8 12 7 -0.1294 -0.7434
8 12 8 1.3036 -1.1733
8 12 9 3.1492 -1.4614
8 12 10 4.4868 -1.3793
8 12 11 -0.0411 -0.4627
8 12 12 -3.5255 2.2598
8 12 13 -0.4981 4.3220
8 13 0 6.9248 -0.2790
8 13 1 2.9931 0.7369
8 13 2 -3.7674 0.4520
8 13 3 -0.5390 -0.1954
8 13 4 -6.7301 -0.6835
8 13 5 -11.5372 -1.1914
8 13 6 -5.3448 -0.5389
8 13 7 0.0221 -0.2122
8 13 8 0.8283 -0.1302
8 13 9 -3.4557 0.3977
8 13 10 -6.1844 1.3871
8 13 11 -2.4706 2.1325
8 14 0 -11.1619 0.8290
8 14 1 -9.9391 -1.0548
8 14 2 -4.0596 -2.1370
8 14 3 -10.0996 -2.2288
8 14 4 -5.8116 -1.2307
8 14 5 3.4310 0.1917
8 14 6 3.4518 -0.1421
8 14 7 1.0601 0.1072
8 14 8 1.4428 1.0192
8 14 9 6.1840 1.4451
8 14 10 7.3752 0.9808
8 15 0 11.3651 0.3085
8 15 1 8.9030 0.5396
8 15 2 1.7202 0.7777
8 15 3 8.9017 0.7728
8 15 4 8.8613 -0.2792
8 15 5 2.0260 -2.1196
8 15 6 2.3251 -2.1050
8 15 7 5.0044 -2.4883
9 -7 1 3.3964 1.9558
9 -7 2 -3.4351 0.2821
9 -7 3 -0.0064 -3.8272
9 -7 4 10.0627 1.5231
9 -7 5 9.1924 -0.3273
9 -7 6 4.6350 -2.9929
9 -6 0 -9.1348 0.3684
9 -6 1 -0.7438 -1.6679
9 -6 2 10.1863 -0.1085
9 -6 3 6.4033 4.1941
9 -6 4 -4.2717 0.0386
9 -6 5 -3.1369 0.9597
9 -6 6 0.7053 2.9165
9 -6 7 -1.8595 -0.6496
9 -6 8 1.0451 0.1350
9 -6 9 3.4012 1.3043
9 -5 0 10.1246 -0.9164
9 -5 1 -1.2262 1.4875
9 -5 2 -13.8107 1.7186
9 -5 3 -11.0494 -1.5402
9 -5 4 -3.0430 0.4988
9 -5 5 -3.8615 -0.6088
9 -5 6 -3.6945 -2.2904
9 -5 7 3.3832 0.2425
9 -5 8 3.6806 -0.0594
9 -5 9 0.1154 -0.7630
9 -5 10 0.0841 -1.9561
9 -5 11 -0.4131 -1.3565
9 -4 0 -9.8107 0.8969
9 -4 1 -0.6715 0.4313
9 -4 2 5.3963 0.0228
9 -4 3 0.5107 1.5806
9 -4 4 -1.4055 0.2420
9 -4 5 5.5784 0.4989
9 -4 6 8.6932 1.1714
9 -4 7 2.3401 -0.1697
9 -4 8 -2.3993 0.0418
9 -4 9 -4.2597 0.0550
9 -4 10 -5.3757 0.8768
9 -4 11 -3.3448 -0.1641
9 -4 12 -0.8977 -2.6884
9 -4 13 -0.6568 -3.8672
9 -3 0 -0.6053 -0.0645
9 -3 1 -8.5106 0.0744
9 -3 2 -7.5322 0.6588
9 -3 3 2.4788 0.5200
9 -3 4 6.0213 1.1027
9 -3 5 2.2894 0.7997
9 -3 6 0.3976 0.3228
9 -3 7 2.9552 0.3400
9 -3 8 4.4276 0.2428
9 -3 9 4.2352 1.1601
9 -3 10 2.2968 0.6519
9 -3 11 -1.5019 0.8566
9 -3 12 -2.9764 1.1105
9 -3 13 0.5159 1.0071
9 -3 14 2.7121 2.4697
9 -2 0 -0.6798 -0.4956
9 -2 1 7.1630 0.2158
9 -2 2 4.4316 0.6133
9 -2 3 -4.0823 0.3058
9 -2 4 -5.6237 -0.0118
9 -2 5 -3.5566 0.0502
9 -2 6 -1.7105 0.1596
9 -2 7 -0.9123 0.9044
9 -2 8 -1.0135 1.1949
9 -2 9 -1.7842 -0.0648
9 -2 10 -1.3403 -0.2006
9 -2 11 0.6352 -0.7539
9 -2 12 2.4032 -0.5030
9 -2 13 0.3725 -0.0583
9 -2 14 -0.8935 -2.4905
9 -1 0 6.3203 0.2354
9 -1 1 -0.7315 0.2320
9 -1 2 -0.8304 -0.1673
9 -1 3 -0.2645 0.1493
9 -1 4 -4.1487 0.0191
9 -1 5 -4.3461 -0.1058
9 -1 6 -2.1194 0.3844
9 -1 7 1.1417 0.3378
9 -1 8 4.5900 0.4131
9 -1 9 4.3104 1.0976
9 -1 10 0.9462 0.5370
9 -1 11 -1.3223 0.4373
9 -1 12 -3.3289 -0.2016
9 -1 13 -1.4244 -0.9759
9 -1 14 1.6193 1.2166
9 -1 15 0.6718 1.5026
9 0 0 -4.9911 -0.2003
9 0 1 -2.5708 -0.2801
9 0 2 -8.2308 0.1435
9 0 3 -10.5261 -0.1919
9 0 4 -5.4179 -0.1230
9 0 5 -1.5527 0.3664
9 0 6 2.9733 0.6274
9 0 7 3.0535 0.9239
9 0 8 -2.1513 0.9471
9 0 9 -2.3565 0.5311
9 0 10 0.8325 0.6252
9 0 11 0.4763 0.1491
9 0 12 2.2941 0.0493
9 0 13 2.4954 0.8965
9 0 14 -0.2268 0.2058
9 0 15 0.4862 0.4770
9 0 16 0.3205 2.6724
9 1 0 3.9430 -0.0170
9 1 1 -2.4820 0.7291
9 1 2 -0.5420 0.4141
9 1 3 -1.3030 0.2781
9 1 4 -5.9658 0.3810
9 1 5 -6.3245 0.4315
9 1 6 -7.7315 0.4233
9 1 7 -2.9610 0.6802
9 1 8 7.3992 0.7111
9 1 9 6.7244 0.4548
9 1 10 -0.1086 0.0959
9 1 11 -0.8418 0.1842
9 1 12 -4.2790 0.4629
9 1 13 -6.3972 -0.1409
9 1 14 -2.6909 -0.2749
9 1 15 -1.0168 -0.0845
9 1 16 1.3523 -1.0452
9 2 0 -1.4139 0.2994
9 2 1 2.6816 0.0148
9 2 2 -2.7089 0.2863
9 2 3 -4.7494 0.6298
9 2 4 -1.0802 0.4828
9 2 5 -0.0930 0.3888
9 2 6 5.0114 0.8773
9 2 7 4.9792 0.6583
9 2 8 -2.4518 0.3965
9 2 9 -0.2111 0.3499
9 2 10 4.3027 -0.0656
9 2 11 -1.8182 -0.3399
9 2 12 -3.3975 -0.6601
9 2 13 -1.4177 -0.0389
9 2 14 -1.7179 1.1232
9 2 15 1.4872 0.9530
9 2 16 1.2902 0.5067
9 3 0 5.0661 -0.0382
9 3 1 1.3748 0.3598
9 3 2 4.0121 0.4938
9 3 3 1.5411 0.1512
9 3 4 -7.7093 0.2566
9 3 5 -9.5553 0.5683
9 3 6 -10.0260 0.1296
9 3 7 -5.4747 0.4700
9 3 8 4.2036 0.7088
9 3 9 1.7950 0.3437
9 3 10 -4.6882 0.2803
9 3 11 -0.6646 -0.0486
9 3 12 -0.2837 0.3031
9 3 13 -1.4181 0.7099
9 3 14 0.4329 0.1604
9 3 15 -2.2728 0.3016
9 3 16 -0.5791 0.7225
9 4 0 -1.7722 0.4726
9 4 1 -3.0416 1.0389
9 4 2 -12.7353 0.8293
9 4 3 -18.8857 0.7529
9 4 4 -11.4760 0.3506
9 4 5 -6.5514 -0.1502
9 4 6 -2.0350 0.4484
9 4 7 1.3527 0.4815
9 4 8 -0.8986 0.2626
9 4 9 1.6148 0.1984
9 4 10 3.8888 -0.1070
9 4 11 -2.9683 0.2273
9 4 12 -4.3408 0.3338
9 4 13 -4.2481 0.2460
9 4 14 -6.3207 0.8608
9 4 15 -2.1730 1.3642
9 4 16 -3.9319 1.4822
9 5 0 3.0978 0.3692
9 5 1 3.6781 0.3727
9 5 2 8.8069 0.7201
9 5 3 12.9731 0.3455
9 5 4 2.7735 0.0608
9 5 5 -1.1164 0.3317
9 5 6 3.4099 0.0183
9 5 7 6.8039 -0.0570
9 5 8 10.1326 -0.1572
9 5 9 8.3295 -0.2959
9 5 10 4.2194 -0.3160
9 5 11 4.1845 -0.4733
9 5 12 -1.1122 -0.2251
9 5 13 -2.7382 0.3309
9 5 14 1.7730 1.1167
9 5 15 -0.0479 1.4554
9 5 16 3.4872 1.5123
9 6 0 4.4531 0.3491
9 6 1 3.7831 0.3228
9 6 2 -2.6692 -0.4298
9 6 3 -12.9538 -0.4617
9 6 4 -5.3780 -0.2425
9 6 5 0.0811 -0.2787
9 6 6 -4.0839 -0.0166
9 6 7 -3.6392 0.1363
9 6 8 -0.7266 0.3182
9 6 9 0.9655 0.0646
9 6 10 0.3584 -0.0480
9 6 11 -2.9639 -0.2142
9 6 12 0.4077 -0.3513
9 6 13 0.7832 0.3998
9 6 14 -4.4594 0.4720
9 6 15 -1.5234 0.9136
9 6 16 -2.7414 1.2078
9 7 0 3.4078 0.2703
9 7 1 -1.9538 -0.0762
9 7 2 -6.4010 0.1442
9 7 3 -3.0390 -0.1586
9 7 4 -12.5955 -0.3284
9 7 5 -15.0267 -0.1507
9 7 6 -1.7194 0.2554
9 7 7 5.2932 0.6146
9 7 8 3.7417 0.2601
9 7 9 1.8803 0.1929
9 7 10 1.3960 -0.4758
9 7 11 1.7389 -0.4272
9 7 12 -4.3557 0.6918
9 7 13 -6.9113 0.7421
9 7 14 -1.8260 1.4922
9 7 15 -3.8280 0.7441
9 7 16 -2.8183 -1.2378
9 8 0 -6.8617 -0.0395
9 8 1 -5.2456 0.2547
9 8 2 -2.3536 -0.0515
9 8 3 -7.2404 0.0863
9 8 4 1.0382 0.0031
9 8 5 6.2632 0.0652
9 8 6 -0.2635 -0.2072
9 8 7 1.3265 -0.5611
9 8 8 9.5585 -0.0706
9 8 9 11.7554 -0.3130
9 8 10 7.5998 0.4384
9 8 11 1.1991 1.0950
9 8 12 1.7834 0.5623
9 8 13 2.8529 1.2135
9 8 14 -1.5164 0.7049
9 8 15 1.4757 1.4479
9 8 16 2.8253 3.9206
9 9 0 5.5431 -0.1083
9 9 1 4.4091 -0.0568
9 9 2 -1.6095 0.4041
9 9 3 -0.2235 0.1440
9 9 4 -5.8584 0.1726
9 9 5 -5.4911 -0.1189
9 9 6 4.2045 0.0752
9 9 7 4.4339 0.3621
9 9 8 -1.9689 -0.4472
9 9 9 -3.8141 0.2155
9 9 10 -2.6004 0.5719
9 9 11 -0.5310 0.7660
9 9 12 -2.5431 2.1020
9 9 13 -3.3217 1.9592
9 9 14 2.8783 2.3481
9 9 15 2.6840 1.1223
9 10 0 -0.9145 0.7547
9 10 1 -2.9689 0.7119
9 10 2 -1.0177 0.0185
9 10 3 -4.8907 -0.0155
9 10 4 -3.0871 -0.3332
9 10 5 -4.2992 -0.1188
9 10 6 -7.4615 -0.3550
9 10 7 -1.4711 -0.5639
9 10 8 4.3471 0.7885
9 10 9 1.9049 0.8171
9 10 10 -2.2533 0.9947
9 10 11 -5.0861 1.7386
9 10 12 -4.6965 0.8496
9 10 13 -4.6344 -0.0500
9 10 14 -9.2800 -2.1490
9 11 0 3.9280 -0.1447
9 11 1 1.3379 -0.3325
9 11 2 -5.0668 -0.0751
9 11 3 -5.0468 -0.2485
9 11 4 -5.3078 -0.0560
9 11 5 1.1459 -0.5260
9 11 6 7.5984 -0.5942
9 11 7 5.2813 -0.3023
9 11 8 4.5125 -0.7671
9 11 9 8.3151 0.2676
9 11 10 8.3962 0.6947
9 11 11 5.2259 -1.0409
9 11 12 3.1611 -2.2766
9 11 13 4.9144 -2.6539
9 11 14 10.0871 -1.0705
9 12 0 -1.8713 -0.3217
9 12 1 -0.4293 0.0284
9 12 2 2.0281 0.1981
9 12 3 -0.3246 0.0908
9 12 4 0.8634 -0.9850
9 12 5 -1.4684 -1.4277
9 12 6 -1.3722 -1.3926
9 12 7 4.5817 -0.7586
9 12 8 3.6835 0.1740
9 12 9 -3.6212 -0.9283
9 12 10 -6.4539 -2.1070
9 12 11 -3.5701 -1.2614
9 12 12 -1.2048 -0.1081
9 13 0 0.5558 -0.1957
9 13 1 -2.6224 0.7280
9 13 2 -4.1338 0.7278
9 13 3 0.2362 0.2582
9 13 4 0.4686 0.3636
9 13 5 4.6082 0.1617
9 13 6 6.6940 -0.2933
9 13 7 1.6517 -1.6212
9 13 8 0.4414 -2.6666
9 13 9 3.5329 -1.7086
9 13 10 4.0577 -0.4859
9 13 11 0.4756 -0.1966
9 14 0 0.5763 0.6273
9 14 1 2.6927 0.2533
9 14 2 1.8047 0.4813
9 14 3 -3.7342 0.6563
9 14 4 -1.2946 0.1789
9 14 5 -1.6480 -0.0978
9 14 6 -3.1201 -0.0811
9 14 7 0.4726 1.3850
9 14 8 1.3556 2.2806
9 14 9 -1.1128 1.5332
9 15 2 -3.9275 -0.9151
9 15 3 1.2359 -2.4013
9 15 4 -1.1361 -2.6647
9 15 5 -0.4730 -2.2266
9 15 6 3.1439 -1.3429
10 -6 3 -3.8768 2.9597
10 -6 4 4.9079 0.2789
10 -6 5 15.6403 4.0606
10 -5 0 1.8263 -4.3961
10 -5 1 -4.2751 -0.6298
10 -5 2 1.9077 -0.0887
10 -5 3 7.4369 -0.6644
10 -5 4 -3.6904 1.8414
10 -5 5 -17.6031 -1.3936
10 -5 6 -11.9054 -1.9926
10 -5 7 2.3191 0.2478
10 -5 8 4.6011 -2.1551
10 -5 9 0.8082 -1.6762
10 -4 0 -0.7631 0.5820
10 -4 1 3.5445 -0.6369
10 -4 2 -7.0695 0.0326
10 -4 3 -15.5160 1.1426
10 -4 4 -3.9543 -0.6251
10 -4 5 11.0438 0.7571
10 -4 6 8.8316 1.0117
10 -4 7 -0.6332 0.1229
10 -4 8 -2.1329 1.6955
10 -4 9 -0.8284 0.3722
10 -4 10 -0.8247 -1.3622
10 -4 11 -0.9470 -2.6159
10 -3 0 -2.9953 0.0219
10 -3 1 -10.1198 0.7517
10 -3 2 -3.2998 0.5184
10 -3 3 1.5384 -0.0719
10 -3 4 -7.5810 0.9026
10 -3 5 -12.2711 0.9919
10 -3 6 -3.6277 1.3193
10 -3 7 3.4527 0.9272
10 -3 8 1.3462 -0.4159
10 -3 9 -1.7972 0.5697
10 -3 10 -3.3476 1.0519
10 -3 11 -3.8817 1.5461
10 -3 12 -2.0145 0.1731
10 -2 0 -5.9973 -0.9410
10 -2 1 -1.4940 -0.9750
10 -2 2 -7.3453 -0.3190
10 -2 3 -6.7684 0.6574
10 -2 4 5.5606 1.5032
10 -2 5 8.3096 1.3466
10 -2 6 1.5805 0.4196
10 -2 7 0.9573 0.7724
10 -2 8 5.0501 1.1152
10 -2 9 4.4196 0.2605
10 -2 10 1.1916 0.5979
10 -2 11 -0.6210 -0.2326
10 -2 12 -1.3819 0.0674
10 -2 13 -2.8487 0.9775
10 -1 0 3.8573 -1.0032
10 -1 1 -1.9671 -0.6752
10 -1 2 2.3060 0.0399
10 -1 3 -0.6148 0.9175
10 -1 4 -11.3410 0.1682
10 -1 5 -8.4472 0.0897
10 -1 6 0.6143 0.7586
10 -1 7 0.7828 0.4120
10 -1 8 -2.8495 0.8332
10 -1 9 -2.3378 1.4963
10 -1 10 -0.3064 0.3806
10 -1 11 -0.3146 0.7422
10 -1 12 -1.8419 0.3154
10 -1 13 0.1853 -0.8821
10 -1 14 2.5161 0.6577
10 0 0 -2.4715 -0.7847
10 0 1 2.3786 -0.2007
10 0 2 -4.3495 0.1360
10 0 3 -3.9721 -0.6027
10 0 4 3.1767 0.1984
10 0 5 -0.7318 0.6716
10 0 6 -5.3743 0.7169
10 0 7 -2.3466 1.4747
10 0 8 1.5589 1.1806
10 0 9 1.8874 0.4540
10 0 10 -0.7113 0.4873
10 0 11 -1.9916 -1.1395
10 0 12 1.6399 -1.6495
10 0 13 2.5313 -0.2750
10 0 14 0.8538 -0.8537
10 0 15 1.0277 -0.5746
10 1 0 4.4575 0.2978
10 1 1 -2.1201 0.3291
10 1 2 0.3489 0.2245
10 1 3 -4.5157 0.9732
10 1 4 -11.6142 0.4163
10 1 5 -6.0749 0.0673
10 1 6 -0.3434 0.3089
10 1 7 2.2158 0.2988
10 1 8 3.1959 0.2805
10 1 9 0.2738 -0.1389
10 1 10 -0.4029 -0.7537
10 1 11 1.0099 0.1661
10 1 12 -2.7576 0.7032
10 1 13 -3.6682 -0.1390
10 1 14 -1.0217 0.7025
10 1 15 -1.0181 1.7905
10 2 0 -1.8098 -0.4018
10 2 1 -1.3816 0.0574
10 2 2 -7.0977 0.3658
10 2 3 -3.6035 -0.2009
10 2 4 1.7755 -0.0305
10 2 5 -0.8642 0.2582
10 2 6 1.3682 0.2230
10 2 7 1.7982 -0.1003
10 2 8 -0.4899 0.0535
10 2 9 3.2548 0.4691
10 2 10 3.1491 0.2991
10 2 11 -1.8114 -0.4546
10 2 12 -0.0160 -0.8370
10 2 13 0.5199 -0.1827
10 2 14 -1.3225 -0.2992
10 2 15 1.0517 -1.0597
10 2 16 1.8203 -0.7378
10 3 0 0.9034 -0.3581
10 3 1 0.9568 -0.3052
10 3 2 3.4578 -0.1475
10 3 3 -1.8226 0.2550
10 3 4 -4.6817 0.3651
10 3 5 -0.4561 0.3920
10 3 6 -5.4661 0.4859
10 3 7 -6.1862 1.0372
10 3 8 -0.0013 0.6199
10 3 9 -1.2549 0.0371
10 3 10 -0.8960 0.3001
10 3 11 2.3176 -0.0243
10 3 12 -2.1902 -0.4752
10 3 13 -2.8092 -0.5428
10 3 14 1.1248 0.1753
10 3 15 0.6183 1.5460
10 3 16 0.7191 1.4774
10 4 0 0.6888 -0.1302
10 4 1 -0.3882 0.3367
10 4 2 -3.0484 0.6137
10 4 3 -1.7075 0.8441
10 4 4 -4.5297 0.7461
10 4 5 -11.0854 0.5465
10 4 6 -1.1717 0.6504
10 4 7 7.4033 0.3528
10 4 8 4.2005 0.8030
10 4 9 2.7725 0.5655
10 4 10 -1.3935 -0.9085
10 4 11 -5.3646 -0.8592
10 4 12 0.3561 0.0154
10 4 13 1.0465 0.5671
10 4 14 -3.1256 0.9146
10 4 15 -2.6403 0.7518
10 4 16 -3.1609 0.8288
10 5 0 -1.2131 -0.0363
10 5 1 -4.2679 0.3945
10 5 2 -4.3927 0.7841
10 5 3 -4.2681 0.4962
10 5 4 -0.6120 0.3571
10 5 5 7.8594 0.2991
10 5 6 1.1389 0.0058
10 5 7 -6.9588 0.2045
10 5 8 -3.0049 -0.2684
10 5 9 1.4963 -0.2323
10 5 10 5.9720 0.3638
10 5 11 5.4775 -0.2701
10 5 12 -4.2274 -0.6665
10 5 13 -5.1087 0.0878
10 5 14 0.5630 0.9406
10 5 15 1.8791 1.0888
10 5 16 3.7499 1.0519
10 6 0 -2.6678 -0.4175
10 6 1 4.3283 0.1584
10 6 2 4.6784 0.2448
10 6 3 0.7406 0.5178
10 6 4 -0.8861 0.2644
10 6 5 -6.5724 0.1128
10 6 6 -1.7236 0.3873
10 6 7 7.4523 0.2883
10 6 8 6.4279 0.3952
10 6 9 0.7096 -0.2208
10 6 10 -5.7205 -0.4568
10 6 11 -5.4047 0.1990
10 6 12 3.3597 0.1524
10 6 13 3.3021 -0.4234
10 6 14 -1.9444 -0.7284
10 6 15 -3.5536 0.6299
10 6 16 -7.4311 1.7604
10 7 0 3.9689 0.2379
10 7 1 -2.4627 0.3024
10 7 2 -2.0487 0.6889
10 7 3 2.2815 0.3047
10 7 4 -3.8204 0.3791
10 7 5 -4.0319 0.4415
10 7 6 -2.9387 0.3263
10 7 7 -5.5043 0.1485
10 7 8 -3.3241 -0.4188
10 7 9 1.9351 -0.0927
10 7 10 5.4325 -0.7529
10 7 11 1.7476 -1.3647
10 7 12 -6.7790 -0.4301
10 7 13 -5.9959 0.2179
10 7 14 -1.4502 0.9181
10 7 15 0.2300 0.0302
10 7 16 5.9142 -0.7536
10 8 0 -1.1672 0.7325
10 8 1 2.4927 0.5676
10 8 2 -2.3283 -0.2068
10 8 3 -12.3312 0.2361
10 8 4 -4.6211 0.1952
10 8 5 0.7018 -0.0715
10 8 6 -0.7823 -0.5872
10 8 7 1.5734 -0.4851
10 8 8 2.4508 0.4937
10 8 9 -0.6568 -0.0276
10 8 10 -2.3123 0.4096
10 8 11 1.1708 0.3237
10 8 12 5.8399 -0.9647
10 8 13 3.5962 0.3598
10 8 14 1.4299 1.8488
10 8 15 2.2735 3.4825
10 9 0 -0.6654 -1.1602
10 9 1 -7.3503 -0.5539
10 9 2 -6.6991 0.7394
10 9 3 3.0862 0.2273
10 9 4 -2.9017 -0.0611
10 9 5 -6.5388 -0.1297
10 9 6 -0.2422 0.6694
10 9 7 2.6113 0.8700
10 9 8 4.1336 -0.2653
10 9 9 7.0779 0.3976
10 9 10 5.4168 0.0420
10 9 11 0.0608 0.4783
10 9 12 -1.4112 2.7555
10 9 13 3.0556 1.7230
10 9 14 3.8600 0.5299
10 9 15 -0.4145 -0.1436
10 10 0 -5.7652 0.9639
10 10 1 0.5837 1.0597
10 10 2 2.6590 0.3728
10 10 3 -6.1399 0.8133
10 10 4 -2.0147 0.5471
10 10 5 3.6371 0.5288
10 10 6 3.0423 -0.0986
10 10 7 4.0657 -0.2124
10 10 8 2.5269 1.0201
10 10 9 -2.4066 0.2723
10 10 10 -1.6855 1.0948
10 10 11 2.0428 2.1944
10 10 12 -0.5138 1.2085
10 10 13 -6.6032 2.7637
10 10 14 -6.0524 3.3476
10 11 0 5.9682 -0.1953
10 11 1 1.5296 0.1311
10 11 2 -1.3658 0.3761
10 11 3 6.2180 -0.1016
10 11 4 5.6487 0.6004
10 11 5 2.2951 0.5817
10 11 6 0.7011 0.7327
10 11 7 -1.6494 0.6817
10 11 8 0.3816 -0.3175
10 11 9 4.4273 0.8951
10 11 10 1.0650 0.7006
10 11 11 -4.2981 -0.4011
10 11 12 -0.8885 0.4492
10 11 13 5.7582 -1.1360
10 12 0 1.3510 0.1921
10 12 1 0.7231 -0.8392
10 12 2 -0.0921 -0.5363
10 12 3 -7.2246 0.3076
10 12 4 -7.6194 -0.4432
10 12 5 -4.3243 -0.4744
10 12 6 0.8671 -0.7026
10 12 7 5.7590 -1.1361
10 12 8 4.4912 -0.4528
10 12 9 1.2533 -0.7374
10 12 10 3.6485 0.4543
10 12 11 6.5668 1.7907
10 12 12 2.1064 -0.1843
10 13 0 -6.5812 -1.2668
10 13 1 -4.9953 1.0247
10 13 2 -3.5610 0.8426
10 13 3 0.7876 -0.1163
10 13 4 1.2770 0.0374
10 13 5 2.4754 -0.9948
10 13 6 2.6840 -1.6546
10 13 7 2.6562 -0.9674
10 13 8 4.6068 -0.4130
10 13 9 3.4781 -0.0146
10 13 10 -2.2769 -1.8409
10 13 11 -5.8636 -3.8088
10 14 0 2.8393 -1.2105
10 14 1 1.4887 -1.9586
10 14 2 0.5003 0.3082
10 14 3 -0.6166 2.0151
10 14 4 2.4766 1.4176
10 14 5 3.4929 1.4277
10 14 6 4.5488 1.2965
10 14 7 4.0870 0.1853
10 14 8 0.6695 -1.0682
11 -4 1 -0.1226 -1.8102
11 -4 2 -2.4830 1.7755
11 -4 3 -3.9244 2.6634
11 -4 4 -4.6506 0.3070
11 -4 5 -7.2396 -0.1173
11 -4 6 -7.0120 -2.0786
11 -4 7 -1.2196 -2.6579
11 -4 8 4.1911 -0.6859
11 -3 0 5.9313 0.0102
11 -3 1 -2.8803 0.1200
11 -3 2 -5.2822 -0.7972
11 -3 3 -8.3517 -0.7072
11 -3 4 -10.2745 0.2035
11 -3 5 -5.3295 0.2325
11 -3 6 -1.5333 1.1569
11 -3 7 -4.0230 1.3363
11 -3 8 -6.9391 0.6251
11 -3 9 -6.8249 0.1541
11 -3 10 -5.2411 -2.6806
11 -2 0 -8.1454 -0.3298
11 -2 1 -0.2058 -0.5704
11 -2 2 -2.1835 -1.1578
11 -2 3 -1.7693 -1.8191
11 -2 4 1.0203 -0.9690
11 -2 5 -1.7789 0.2723
11 -2 6 -0.5850 1.3362
11 -2 7 6.3655 2.1020
11 -2 8 8.7326 0.9671
11 -2 9 6.0223 0.3618
11 -2 10 2.7608 2.8743
11 -2 11 -0.3404 2.7670
11 -2 12 -1.9166 0.7019
11 -1 0 1.7293 -0.5965
11 -1 1 -10.7782 -1.6947
11 -1 2 -10.0680 -0.5973
11 -1 3 -11.2846 1.6247
11 -1 4 -13.1815 1.8430
11 -1 5 -5.4415 2.0172
11 -1 6 -2.0571 0.8474
11 -1 7 -5.4122 -0.7669
11 -1 8 -4.4775 0.6257
11 -1 9 -2.0383 1.3461
11 -1 10 -2.8075 -0.7488
11 -1 11 -3.7535 -0.2697
11 -1 12 -3.6862 1.1137
11 -1 13 -1.0516 2.5852
11 0 0 -2.1825 -2.1741
11 0 1 6.8392 -0.6782
11 0 2 1.9231 -0.2206
11 0 3 2.3980 -0.5812
11 0 4 5.0156 0.5965
11 0 5 -3.0319 0.1871
11 0 6 -5.4022 0.6758
11 0 7 -0.8006 1.9952
11 0 8 -0.5680 0.7750
11 0 9 -1.1234 0.3585
11 0 10 0.5056 1.5543
11 0 11 1.4807 -0.0870
11 0 12 2.2994 -1.9350
11 0 13 0.8118 -3.4288
11 0 14 0.2998 -5.5075
11 1 0 3.3953 -0.0349
11 1 1 -4.7356 -0.7553
11 1 2 -1.4147 -0.3677
11 1 3 -6.2813 0.3844
11 1 4 -11.0664 -0.6377
11 1 5 -1.6542 0.0466
11 1 6 3.5614 0.2623
11 1 7 3.3101 -0.3229
11 1 8 4.2716 0.4937
11 1 9 1.8816 0.1348
11 1 10 -1.1773 -1.3683
11 1 11 -1.8271 -0.9138
11 1 12 -2.5757 -0.4359
11 1 13 0.2929 0.4229
11 1 14 2.9112 3.1942
11 2 0 0.9971 -0.7362
11 2 1 4.6277 0.2023
11 2 2 -0.8203 0.4027
11 2 3 2.6501 0.1430
11 2 4 4.4218 0.8292
11 2 5 -5.1180 -0.0995
11 2 6 -6.8124 -0.5804
11 2 7 -5.3450 -0.2017
11 2 8 -5.0203 -0.3920
11 2 9 -0.7819 -0.4459
11 2 10 -0.4225 -0.6439
11 2 11 -3.0416 -1.4286
11 2 12 -1.0886 -1.2485
11 2 13 -1.2158 -0.7177
11 2 14 -2.2907 -1.7322
11 2 15 0.1783 -1.8505
11 3 0 0.8828 0.0259
11 3 1 -3.9895 -0.0470
11 3 2 -2.7612 0.2845
11 3 3 -8.1645 0.4201
11 3 4 -7.5896 -0.2623
11 3 5 1.9701 0.1579
11 3 6 1.1189 0.4192
11 3 7 1.7581 0.2124
11 3 8 4.1152 -0.3383
11 3 9 -0.5283 -0.6459
11 3 10 0.4821 -0.3436
11 3 11 4.7030 -0.4865
11 3 12 1.7358 -1.0837
11 3 13 0.8820 -1.5650
11 3 14 2.4202 -1.0203
11 3 15 0.8186 0.0076
11 4 0 -0.2054 -0.3301
11 4 1 2.5883 0.3664
11 4 2 -0.1320 0.2530
11 4 3 1.8550 0.0419
11 4 4 -1.8060 0.2456
11 4 5 -8.2676 0.0477
11 4 6 -0.4769 -0.1709
11 4 7 0.5777 -0.6009
11 4 8 -3.3942 -0.3351
11 4 9 1.5394 -0.4552
11 4 10 0.3878 -1.0330
11 4 11 -4.4702 -0.5738
11 4 12 -1.3761 -0.5671
11 4 13 -0.1435 -0.7349
11 4 14 -1.0165 0.0495
11 4 15 0.6270 0.7975
11 5 0 0.3518 -0.1430
11 5 1 -5.5095 -0.5017
11 5 2 -4.7218 0.0850
11 5 3 -6.2368 0.6074
11 5 4 -2.6689 0.4951
11 5 5 2.6267 -0.1962
11 5 6 -5.2712 -0.7104
11 5 7 -2.7236 -0.1513
11 5 8 5.8484 -0.0817
11 5 9 1.1575 0.2176
11 5 10 -1.0127 0.1102
11 5 11 0.9934 -1.2001
11 5 12 -1.6967 -0.7331
11 5 13 -0.5273 0.9045
11 5 14 1.9105 1.2067
11 5 15 1.3292 1.0042
11 6 0 -4.0545 -0.6736
11 6 1 -1.0290 -0.0348
11 6 2 -2.9698 0.0430
11 6 3 0.0665 0.0227
11 6 4 2.9828 -0.1188
11 6 5 2.0016 0.3989
11 6 6 9.3527 0.8216
11 6 7 5.2612 0.4281
11 6 8 -5.8489 0.5726
11 6 9 -3.3307 0.0279
11 6 10 -0.3842 -0.2872
11 6 11 -0.8471 -0.0174
11 6 12 1.4268 -0.9977
11 6 13 0.0516 -1.4738
11 6 14 -0.9951 -0.0432
11 6 15 -0.2325 1.5497
11 7 0 -3.8485 -0.3344
11 7 1 -6.0271 0.1341
11 7 2 -0.1697 0.6471
11 7 3 0.6208 0.5921
11 7 4 -4.2645 0.8379
11 7 5 -2.7907 0.4672
11 7 6 -6.1240 0.3850
11 7 7 -3.5745 0.6378
11 7 8 4.4845 -0.1650
11 7 9 2.2342 -0.4678
11 7 10 -1.4534 -1.1276
11 7 11 -2.3608 -1.0420
11 7 12 -3.7544 0.1645
11 7 13 -1.6214 -0.6079
11 7 14 -0.9323 -2.4391
11 7 15 -1.7045 -3.3778
11 8 0 0.4599 -0.4040
11 8 1 6.0837 -0.3722
11 8 2 1.3819 -0.0390
11 8 3 -1.8866 0.6921
11 8 4 3.2062 0.2545
11 8 5 -0.8311 0.2844
11 8 6 -2.2032 -0.0612
11 8 7 -0.9839 -0.5683
11 8 8 -3.8683 -0.2439
11 8 9 -3.6997 -0.6411
11 8 10 -2.7168 -0.0110
11 8 11 -2.0759 -0.6191
11 8 12 -0.1304 -1.7829
11 8 13 0.3964 0.7582
11 8 14 2.1212 3.3706
11 9 0 0.4976 -0.6118
11 9 1 -8.0433 -0.2685
11 9 2 -6.0482 -0.2494
11 9 3 -1.6327 -0.5348
11 9 4 -7.1886 0.6950
11 9 5 -2.1943 0.8013
11 9 6 2.9037 0.6264
11 9 7 -0.4853 0.2954
11 9 8 -1.1186 -0.3318
11 9 9 0.8463 0.3876
11 9 10 1.8132 -0.7040
11 9 11 1.7269 -0.4671
11 9 12 1.4305 0.8329
11 9 13 1.6002 -1.5119
11 9 14 0.9685 -2.0518
11 10 0 -2.5527 0.5039
11 10 1 2.6270 0.5080
11 10 2 -0.5843 1.2335
11 10 3 -7.2163 2.2142
11 10 4 -0.5484 0.9315
11 10 5 -1.2716 0.4290
11 10 6 -3.9966 0.1136
11 10 7 2.4294 0.2999
11 10 8 5.3785 1.0218
11 10 9 1.9145 0.1853
11 10 10 0.0407 1.6911
11 10 11 0.0425 2.0769
11 10 12 -0.2747 0.9316
11 10 13 1.2680 3.7025
11 11 0 -2.7330 -0.7749
11 11 1 -6.5261 0.5389
11 11 2 -3.1904 0.8834
11 11 3 5.7401 -0.0059
11 11 4 2.4307 0.4284
11 11 5 4.2883 0.0271
11 11 6 9.6792 0.4589
11 11 7 6.4038 1.0701
11 11 8 2.7776 0.7944
11 11 9 2.0371 1.7065
11 11 10 -1.6788 0.0970
11 11 11 -3.7556 -0.1982
11 11 12 -0.3650 2.3118
11 12 0 2.9867 0.6198
11 12 1 3.8596 -0.6289
11 12 2 2.0400 -1.1946
11 12 3 -3.6683 -0.7152
11 12 4 1.4447 -0.6258
11 12 5 3.2602 0.9231
11 12 6 -0.8261 1.0400
11 12 7 -1.7987 0.1302
11 12 8 -2.0680 0.1804
11 12 9 -1.6191 -0.5066
11 12 10 3.6656 1.3994
11 12 11 6.6969 2.4023
11 13 0 -2.0407 -0.4200
11 13 1 -2.0998 -0.5693
11 13 2 -1.5902 -0.5247
11 13 3 2.5645 0.2149
11 13 4 -0.3722 1.2728
11 13 5 -1.9797 -0.0640
11 13 6 0.6622 -0.6117
11 13 7 3.2130 -0.2121
11 13 8 4.9422 -0.6347
11 13 9 4.1336 -0.0216
11 14 3 -3.6055 1.4294
11 14 4 -1.2140 -0.0689
11 14 5 1.3854 0.3541
11 14 6 3.0412 0.0213
12 -2 1 3.4161 0.5665
12 -2 2 -1.0300 -1.3925
12 -2 3 -3.1168 -3.2399
12 -2 4 -2.6974 -3.2744
12 -2 5 -3.0370 -2.9597
12 -2 6 -3.1610 -0.3894
12 -2 7 -3.8713 2.6124
12 -2 8 -2.2054 2.2793
12 -2 9 1.8958 0.4799
12 -1 0 1.3423 0.7277
12 -1 1 -6.1422 -2.1759
12 -1 2 -4.0616 -0.8516
12 -1 3 -6.7519 0.4654
12 -1 4 -9.2901 0.5119
12 -1 5 -5.2734 2.3047
12 -1 6 -2.7439 1.6786
12 -1 7 -1.6410 0.0238
12 -1 8 -0.9938 0.6704
12 -1 9 -2.9090 0.7876
12 -1 10 -2.9348 0.9849
12 -1 11 -1.5723 3.4892
12 0 0 -4.0582 -1.0788
12 0 1 0.7114 0.1776
12 0 2 -6.1448 -1.5944
12 0 3 -4.2500 -1.6207
12 0 4 -2.4831 0.7201
12 0 5 -9.1622 0.3138
12 0 6 -8.6943 1.1309
12 0 7 -2.6756 1.8250
12 0 8 0.5129 0.4791
12 0 9 2.2328 1.0427
12 0 10 1.0549 1.0156
12 0 11 -1.2185 -2.0568
12 0 12 -0.7507 -2.4316
12 1 0 4.1098 -0.6672
12 1 1 -2.0690 -2.0364
12 1 2 3.6490 0.1909
12 1 3 -1.9928 1.2301
12 1 4 -5.1816 -0.1201
12 1 5 4.0655 0.6460
12 1 6 4.2900 -0.2429
12 1 7 -2.2194 -1.0130
12 1 8 -4.4726 -0.2786
12 1 9 -4.4834 -1.6361
12 1 10 -2.2683 -1.8427
12 1 11 -0.3267 0.6940
12 1 12 -1.3039 0.3679
12 1 13 0.3970 -1.5280
12 2 0 -0.0529 -1.1928
12 2 1 4.1032 0.1890
12 2 2 -4.7414 -0.6744
12 2 3 -1.0085 -0.5929
12 2 4 0.9337 0.5727
12 2 5 -7.4479 -0.6882
12 2 6 -4.2731 -0.6122
12 2 7 3.3395 -0.4779
12 2 8 4.8405 -0.7802
12 2 9 3.5373 0.7726
12 2 10 -1.0782 0.6516
12 2 11 -3.9098 -1.8785
12 2 12 -1.1089 -2.1447
12 2 13 -0.2654 -0.6110
12 3 0 2.9510 -0.5016
12 3 1 -1.6145 -0.9722
12 3 2 5.7664 0.4205
12 3 3 1.0357 0.6608
12 3 4 -2.3766 -0.1506
12 3 5 1.0813 0.3898
12 3 6 -5.9913 -0.1910
12 3 7 -10.1354 -0.2754
12 3 8 -7.9612 -0.2008
12 3 9 -7.2121 -1.6547
12 3 10 -2.7284 -2.4354
12 3 11 1.1595 -2.1859
12 3 12 0.0045 -2.4001
12 3 13 1.7106 -2.7623
12 3 14 4.0714 -2.1902
12 4 0 -2.1388 0.3732
12 4 1 0.9857 1.3021
12 4 2 -5.2233 0.8756
12 4 3 -0.9788 0.8598
12 4 4 1.9605 0.6730
12 4 5 2.5813 -0.4513
12 4 6 12.3252 -0.5426
12 4 7 10.6021 -1.1175
12 4 8 3.4902 -1.7301
12 4 9 4.6063 -1.8644
12 4 10 2.3230 -1.8595
12 4 11 -1.0354 -1.1710
12 4 12 0.0812 -0.8958
12 4 13 -1.7676 -0.9602
12 4 14 -3.4132 -0.9325
12 5 0 5.4685 -0.4824
12 5 1 0.9371 -0.0507
12 5 2 0.7389 0.5785
12 5 3 -8.0093 0.2186
12 5 4 -12.7074 -0.0780
12 5 5 -15.3326 -0.1278
12 5 6 -23.7929 -0.8468
12 5 7 -13.4645 -1.0935
12 5 8 0.5016 -1.3014
12 5 10 -2.0178 -0.1423
12 5 11 0.4539 -1.1331
12 5 12 0.2781 -1.1856
12 5 13 4.0931 -0.7146
12 5 14 6.8049 -0.5797
12 6 0 -5.7943 -0.2213
12 6 1 -5.9195 -0.1482
12 6 2 -6.6790 -0.0667
12 6 3 1.5557 0.3516
12 6 4 6.4843 0.2116
12 6 5 10.9164 -0.0495
12 6 6 21.7396 -0.3938
12 6 7 11.0814 -0.8295
12 6 8 -4.9341 -0.3358
12 6 9 -3.4238 -0.8892
12 6 10 -2.8314 -1.2762
12 6 11 -4.2765 -0.5457
12 6 12 -1.7213 -0.8823
12 6 13 -2.7051 -0.7994
12 6 14 -3.3979 0.5787
12 7 0 0.4349 0.5805
12 7 1 -2.8572 0.0091
12 7 2 -2.9676 -0.1443
12 7 3 -7.0539 0.1535
12 7 4 -5.1073 0.5369
12 7 5 -1.2841 -0.2399
12 7 6 -8.9880 -0.4280
12 7 7 -3.1184 -0.0038
12 7 8 7.1791 -0.4257
12 7 9 2.3234 0.1495
12 7 10 -0.3827 -0.1043
12 7 11 0.0742 -1.2332
12 7 12 -2.2876 -1.2729
12 7 13 -0.0328 -1.4591
12 7 14 3.2160 -1.5703
12 8 0 -6.0594 -1.3277
12 8 1 -3.9921 -0.4958
12 8 2 -2.8677 0.3641
12 8 3 3.1100 -0.0032
12 8 4 3.4047 -0.9343
12 8 5 -3.9794 -0.0586
12 8 6 0.1814 0.2294
12 8 7 -1.4546 0.1134
12 8 8 -8.5209 0.7605
12 8 9 -5.4723 -0.1558
12 8 10 -3.7791 -0.5171
12 8 11 -3.4309 -0.6507
12 8 12 0.9073 -0.7795
12 8 13 1.6836 0.2783
12 9 0 -2.0943 -1.2384
12 9 1 -2.6466 -0.7612
12 9 2 -0.0663 -0.9320
12 9 3 -2.5325 -0.3829
12 9 4 -3.0977 1.0583
12 9 5 7.3535 0.8656
12 9 6 6.2377 1.4032
12 9 7 1.5515 1.3974
12 9 8 2.0616 -0.3810
12 9 9 -1.8310 -0.7323
12 9 10 -3.9255 -1.1827
12 9 11 -2.8497 -0.5107
12 9 12 -3.4473 -0.3040
12 9 13 -2.1864 -2.2112
12 10 0 2.2540 0.6773
12 10 1 3.2056 -1.0449
12 10 2 -0.8639 -0.5944
12 10 3 -0.6695 0.8444
12 10 4 1.7836 1.1501
12 10 5 -8.8692 1.6970
12 10 6 -10.9954 0.0972
12 10 7 -4.2043 -1.0740
12 10 8 -2.5559 0.0213
12 10 9 -0.2809 -0.0096
12 10 10 2.0966 0.2463
12 10 11 1.0233 -1.1581
12 10 12 0.5134 -1.5122
12 11 0 -1.0269 -2.1018
12 11 1 -4.9799 0.6587
12 11 2 -2.2881 1.6511
12 11 3 -0.8229 0.9254
12 11 4 -4.0731 0.7424
12 11 5 5.4823 -0.0991
12 11 6 10.3194 0.7978
12 11 7 4.6091 1.1410
12 11 8 3.0654 -0.0733
12 11 9 1.5837 0.7374
12 11 10 -3.0463 1.1928
12 11 11 -3.3153 3.0444
12 12 0 -3.0866 2.0076
12 12 1 -0.9251 0.8730
12 12 2 -3.3960 0.8426
12 12 3 -4.7401 1.5961
12 12 4 2.3669 1.0864
12 12 5 1.0551 1.1412
12 12 6 0.9839 0.4726
12 12 7 6.9996 1.2938
12 12 8 5.4092 3.2987
12 12 9 0.6855 2.2493
12 12 10 1.2392 1.3433
12 13 3 5.7600 -3.4040
12 13 4 2.4453 -2.5269
12 13 5 3.9329 -1.6394
12 13 6 3.9749 -0.0596
12 13 7 -1.8054 -0.4359
13 0 2 -3.5423 -2.9695
13 0 3 -4.3612 -1.5502
13 0 4 -4.9388 1.0442
13 0 5 -8.5225 1.2637
13 0 6 -7.9280 2.7261
13 0 7 -4.9410 1.4220
13 0 8 -2.5569 -0.8534
13 0 9 -0.8983 0.8504
13 1 1 -8.3325 -1.3559
13 1 2 0.9846 -0.3055
13 1 3 -1.5255 -0.9310
13 1 4 -2.4375 -1.3378
13 1 5 2.4845 0.4680
13 1 6 0.7817 -0.1350
13 1 7 -2.1657 0.8980
13 1 8 -0.8977 2.1386
13 1 9 -0.0275 -0.3055
13 1 10 -0.3321 -1.4198
13 2 0 11.3048 -0.8766
13 2 1 7.2364 0.4982
13 2 2 -3.9263 0.0794
13 2 3 -0.5469 0.9713
13 2 4 -1.1348 1.3620
13 2 5 -8.6858 -0.0133
13 2 6 -5.6568 0.5423
13 2 7 -1.2895 -1.0621
13 2 8 -3.1699 -2.8469
13 2 9 -4.5400 -1.3811
13 2 10 -4.3883 -0.9298
13 2 11 -4.0270 -1.1350
13 3 0 -4.7035 -0.9192
13 3 1 -0.9378 -1.2262
13 3 2 5.9464 -0.0199
13 3 3 -2.9010 0.4536
13 3 4 -3.4480 0.9097
13 3 5 5.5743 0.9329
13 3 6 3.3823 -1.6482
13 3 7 0.8428 -1.8936
13 3 8 2.9077 -1.1858
13 3 9 2.3408 -1.8239
13 3 10 1.5427 -1.3887
13 3 11 2.2322 -1.7518
13 3 12 2.7391 -3.5847
13 4 0 1.5356 -0.3057
13 4 1 -1.6778 -0.3581
13 4 2 -4.2751 -0.3552
13 4 3 7.9486 0.0763
13 4 4 8.6231 -0.4988
13 4 5 -0.8456 -0.9883
13 4 6 -0.6315 0.2178
13 4 7 -3.5308 -0.3093
13 4 8 -7.9332 -0.7710
13 4 9 -6.3381 -0.6591
13 4 10 -5.9695 -1.7791
13 4 11 -6.4844 -2.1154
13 4 12 -4.4672 -1.5511
13 5 0 0.0661 -0.7145
13 5 1 2.2583 0.6564
13 5 2 2.9546 1.8327
13 5 3 -8.0183 1.9367
13 5 4 -7.5731 1.7715
13 5 5 -1.6819 0.6787
13 5 6 -5.2908 -1.0140
13 5 7 -0.8808 -1.0483
13 5 8 3.1267 -1.7503
13 5 9 -0.7826 -2.5642
13 5 10 0.3546 -2.4358
13 5 11 3.2323 -2.3617
13 5 12 2.2463 -1.4990
13 5 13 1.5149 -0.7762
13 6 0 3.0384 0.1579
13 6 1 0.0562 1.2959
13 6 2 -3.1719 1.4221
13 6 3 0.6829 1.0253
13 6 4 -4.8572 0.4635
13 6 5 -8.2411 0.4712
13 6 6 0.5479 -0.2198
13 6 7 -1.9490 -1.9395
13 6 8 -3.1748 -2.0049
13 6 9 4.2981 -1.8045
13 6 10 2.7141 -1.3762
13 6 11 -1.2794 -0.8521
13 6 12 0.5233 -2.0797
13 6 13 2.1748 -2.5996
13 7 0 -3.5660 0.4665
13 7 1 -3.3246 -0.7068
13 7 2 -2.7470 -0.8287
13 7 3 -4.9326 -0.1313
13 7 4 2.9855 0.0403
13 7 5 6.7232 -0.8058
13 7 6 -2.7146 -0.5465
13 7 7 0.0472 -0.2836
13 7 8 0.0335 -1.6046
13 7 9 -10.9386 -1.4312
13 7 10 -10.9871 -1.0500
13 7 11 -6.1635 -0.8501
13 7 12 -5.2820 0.5762
13 8 0 1.1149 -0.4167
13 8 1 -3.9765 0.1420
13 8 2 -7.0853 0.6908
13 8 3 -4.9838 0.4883
13 8 4 -8.6799 0.4050
13 8 5 -7.5577 0.2845
13 8 6 5.5228 -1.8510
13 8 7 3.2686 -2.2876
13 8 8 -1.1090 0.1279
13 8 9 5.0314 0.2506
13 8 10 3.1450 -0.6411
13 8 11 -1.0325 -1.8408
13 8 12 0.3207 -3.2698
13 9 0 -6.6444 0.2380
13 9 1 -4.1722 0.3063
13 9 2 0.1451 -0.3164
13 9 3 2.0385 -0.4003
13 9 4 8.2281 -0.7094
13 9 5 10.2036 -0.9301
13 9 6 -2.3340 1.5183
13 9 7 -3.1380 2.0707
13 9 8 1.7648 -0.1957
13 9 9 -2.5512 0.1283
13 9 10 -2.4153 0.9390
13 9 11 -0.2284 1.5167
13 10 0 0.2547 -1.7888
13 10 1 -0.2638 -2.1294
13 10 2 -3.1132 -0.8205
13 10 3 -3.1170 -0.3522
13 10 4 -4.8221 -0.0506
13 10 5 -6.1562 1.1129
13 10 6 4.5785 0.2676
13 10 7 4.6784 0.6171
13 10 8 -6.3171 1.8597
13 10 9 -9.3564 -0.6154
13 10 10 -9.3943 -2.8717
13 10 11 -7.4898 -3.7851
13 11 2 3.1598 -2.4043
13 11 3 4.2752 -1.8647
13 11 4 3.3505 0.4099
13 11 5 3.9354 0.7763
13 11 6 -5.9358 0.8912
13 11 7 -8.8649 -0.7732
13 11 8 1.5626 -2.3430
13 11 9 6.3514 0.1653
13 12 4 -0.4314 3.6101
13 12 5 -0.3661 2.8091
13 12 6 6.6417 2.1529
14 3 3 -8.6613 3.7133
14 3 4 -5.1947 2.0213
14 3 5 0.7662 0.3478
14 3 6 -3.6833 -1.8672
14 3 7 -5.6753 -3.1015
14 3 8 -0.5158 -6.2709
14 4 2 -0.0105 -3.1224
14 4 3 7.4520 -1.8979
14 4 4 3.8656 0.2078
14 4 5 -0.0666 1.2405
14 4 6 6.2268 0.7761
14 4 7 6.2648 -0.8232
14 4 8 -0.7352 1.0026
14 4 9 -4.1319 2.9804
14 5 2 0.5495 1.5751
14 5 3 -2.7802 2.1328
14 5 4 2.5587 1.4446
14 5 5 4.0730 0.1652
14 5 6 -4.1903 -0.3886
14 5 7 -4.0981 -0.1095
14 5 8 -1.2442 -2.3273
14 5 9 -3.4775 -3.9649
14 5 10 -4.3587 -3.2694
14 6 2 -2.1261 1.2516
14 6 3 0.2988 1.8396
14 6 4 -4.0284 1.8196
14 6 5 -3.6875 1.1862
14 6 6 1.2778 -0.3215
14 6 7 -5.4377 -1.5942
14 6 8 -7.7995 -0.8522
14 6 9 -0.4422 -1.2195
14 6 10 2.3230 -2.1124
14 7 2 1.8572 2.0466
14 7 3 -1.3390 1.9477
14 7 4 0.3177 1.0747
14 7 5 -2.8861 0.3688
14 7 6 -5.4753 0.2951
14 7 7 7.1636 -0.8614
14 7 8 10.1017 -2.6726
14 7 9 -0.5395 -1.7517
14 7 10 -4.0915 -0.9132
14 8 2 -3.9670 -1.9560
14 8 3 -3.3811 -2.1271
14 8 4 -5.3842 -0.7263
14 8 5 -0.7317 0.2314
14 8 6 2.1101 -0.4653
14 8 7 -12.5864 -0.2296
14 8 8 -17.3064 -0.3068
14 8 9 -7.7317 -3.0160
14 8 10 -5.3411 -3.2627
14 9 3 -3.5394 4.4354
14 9 4 0.7378 3.2528
14 9 5 -0.4832 0.7042
14 9 6 -1.9574 -0.7620
14 9 7 11.5808 -2.8143
14 9 8 15.4413 -2.5060
14 9 9 5.0529 1.7610
14 10 5 2.7693 -2.1141
14 10 6 6.8059 -0.6660
0 0 0 0.0 0.0
;
_shelx_fab_checksum                90620
_olex2_submission_special_instructions  'No special instructions were received'
_oxdiff_exptl_absorpt_empirical_details
;
Empirical correction (ABSPACK) includes:
- Absorption correction using spherical harmonics
- Frame scaling
- B-factor correction
;
