data_CoCe70-Isolated
_audit_creation_method 'Olex2 1.2
(compiled May 18 2018 14:05:52 for OlexSys, GUI svn.r5506)
'
_audit_creation_date	2020-07-22
_audit_update_record	2020-07-22
_chemical_formula_sum	'Ce149 Co2 O892 S136'
_chemical_formula_weight	39627.898
_refine_ls_R_factor_all	0.098
_cell_length_a	31.0416(2)
_cell_length_b	34.3912(3)
_cell_length_c	35.5551(3)
_cell_angle_alpha	85.366(1)
_cell_angle_beta	89.649(1)
_cell_angle_gamma	67.398(1)
_cell_volume	34914.5(5)
_cell_formula_units_Z	1
_symmetry_int_tables_number	2
_symmetry_space_group_name_H-M	'P -1'
_symmetry_space_group_name_Hall	'-P_1'

loop_
_symmetry_equiv_pos_site_id
_symmetry_equiv_pos_as_xyz
1 x,y,z
2 -x,-y,-z

loop_
_atom_type_symbol
_atom_type_oxidation_number
_atom_type_radius_bond
Ce	?	?
Co	?	?
S	?	?
O	?	?


loop_
_atom_site_label
_atom_site_type_symbol
_atom_site_fract_x
_atom_site_fract_y
_atom_site_fract_z
_atom_site_occupancy
_atom_site_symmetry_multiplicity
_atom_site_Wyckoff_symbol
_atom_site_attached_hydrogens
_atom_site_calc_flag
_atom_site_thermal_displace_type
_atom_site_u_iso_or_equiv
_atom_site_disorder_assembly
_atom_site_disorder_group
Ce1 Ce  0.540()  0.2081(0)  0.5483(0)  1.000 2 i ? d Uani  0.04547(16) ? ?
Ce2 Ce  0.2539(0)  0.8911(0)  0.7964(0)  1.000 2 i ? d Uani  0.04658(16) ? ?
Ce3 Ce  0.3119(0)  0.805()  0.7284(0)  1.000 2 i ? d Uani  0.04747(16) ? ?
Ce4 Ce  0.4315(0)  0.300()  0.4942(0)  1.000 2 i ? d Uani  0.04677(16) ? ?
Ce5 Ce  0.3315(0)  0.9096(0)  0.7276(0)  1.000 2 i ? d Uani  0.04683(16) ? ?
Ce6 Ce  0.1808(0)  0.877()  0.7161(0)  1.000 2 i ? d Uani  0.04654(16) ? ?
Ce7 Ce  0.2124(0)  0.8385(0)  0.5714(0)  1.000 2 i ? d Uani  0.04850(17) ? ?
Ce8 Ce  0.4363(0)  0.1924(0)  0.5153(0)  1.000 2 i ? d Uani  0.04764(17) ? ?
Ce9 Ce  0.3514(0)  0.8686(0)  0.8779(0)  1.000 2 i ? d Uani  0.04809(16) ? ?
Ce10 Ce  0.2608(0)  0.8923(0)  0.6474(0)  1.000 2 i ? d Uani  0.04767(16) ? ?
Ce11 Ce  0.3516(0)  0.281()  0.5612(0)  1.000 2 i ? d Uani  0.04786(17) ? ?
Ce12 Ce  0.2592(0)  0.3905(0)  0.5302(0)  1.000 2 i ? d Uani  0.04843(17) ? ?
Ce13 Ce  0.7877(0)  0.2622(0)  0.9899(0)  1.000 2 i ? d Uani  0.04800(17) ? ?
Ce14 Ce  0.3378(0)  0.4086(0)  0.4608(0)  1.000 2 i ? d Uani  0.05050(17) ? ?
Ce15 Ce  0.4595(0)  0.1906(0)  0.6165(0)  1.000 2 i ? d Uani  0.04902(17) ? ?
Ce16 Ce  0.7348(0)  0.1288(0)  0.7033(0)  1.000 2 i ? d Uani  0.05093(17) ? ?
Ce17 Ce  0.6416(0)  0.1505(0)  0.6193(0)  1.000 2 i ? d Uani  0.04979(17) ? ?
Ce18 Ce  0.1813(0)  0.5139(0)  0.5233(0)  1.000 2 i ? d Uani  0.05093(18) ? ?
Ce19 Ce  0.5609(0)  0.133()  0.6872(0)  1.000 2 i ? d Uani  0.05071(17) ? ?
Ce20 Ce  0.1368(0)  0.9277(0)  0.622()  1.000 2 i ? d Uani  0.05037(17) ? ?
Ce21 Ce  0.1329(0)  0.8225(0)  0.6407(0)  1.000 2 i ? d Uani  0.04929(17) ? ?
Ce22 Ce  0.4564(0)  0.7735(0)  0.8482(0)  1.000 2 i ? d Uani  0.04929(17) ? ?
Ce23 Ce  0.238()  0.7258(0)  0.6159(0)  1.000 2 i ? d Uani  0.05028(17) ? ?
Ce24 Ce  0.7717(0)  0.3729(0)  1.0296(0)  1.000 2 i ? d Uani  0.04948(17) ? ?
Ce25 Ce  0.7257(0)  0.127()  0.8519(0)  1.000 2 i ? d Uani  0.05234(18) ? ?
Ce26 Ce  0.4568(0)  0.8137(0)  0.9463(0)  1.000 2 i ? d Uani  0.05162(18) ? ?
Ce27 Ce  0.3779(0)  0.3815(0)  0.5659(0)  1.000 2 i ? d Uani  0.05130(18) ? ?
Ce28 Ce  0.7726(0)  0.1803(0)  0.9294(0)  1.000 2 i ? d Uani  0.05073(17) ? ?
Ce29 Ce  0.2062(0)  0.9729(0)  0.7155(0)  1.000 2 i ? d Uani  0.05119(18) ? ?
Ce30 Ce  0.5369(0)  0.246()  0.6471(0)  1.000 2 i ? d Uani  0.04989(17) ? ?
Ce31 Ce  0.4283(0)  0.8875(0)  0.808()  1.000 2 i ? d Uani  0.05036(17) ? ?
Ce32 Ce  0.8855(0)  0.2873(0)  1.0219(0)  1.000 2 i ? d Uani  0.05231(18) ? ?
Ce33 Ce  0.3135(0)  0.3117(0)  0.4611(0)  1.000 2 i ? d Uani  0.05265(18) ? ?
Ce34 Ce  0.8541(0)  0.1967(0)  0.8612(0)  1.000 2 i ? d Uani  0.05352(18) ? ?
Ce35 Ce  0.6546(0)  0.1117(0)  0.7704(0)  1.000 2 i ? d Uani  0.05240(18) ? ?
Ce36 Ce  0.612()  0.6407(0)  0.9329(0)  1.000 2 i ? d Uani  0.05334(18) ? ?
Ce37 Ce  0.7479(0)  0.2924(0)  0.886()  1.000 2 i ? d Uani  0.05061(17) ? ?
Ce38 Ce  0.3085(0)  0.9656(0)  0.8136(0)  1.000 2 i ? d Uani  0.05091(18) ? ?
Ce39 Ce  0.727()  0.4918(0)  1.046()  1.000 2 i ? d Uani  0.05344(18) ? ?
Ce40 Ce  0.5625(0)  0.100()  0.5904(0)  1.000 2 i ? d Uani  0.05304(18) ? ?
Ce41 Ce  0.8057(0)  0.1445(0)  0.7843(0)  1.000 2 i ? d Uani  0.05480(19) ? ?
Ce42 Ce  0.7221(0)  0.4563(0)  0.9468(0)  1.000 2 i ? d Uani  0.05376(19) ? ?
Ce43 Ce  0.6751(0)  0.2153(0)  0.7711(0)  1.000 2 i ? d Uani  0.05528(19) ? ?
Ce44 Ce  0.6805(0)  0.0545(0)  0.6845(0)  1.000 2 i ? d Uani  0.05420(18) ? ?
Ce45 Ce  0.8535(0)  0.3867(0)  0.9618(0)  1.000 2 i ? d Uani  0.05404(19) ? ?
Ce46 Ce  0.1351(0)  0.6309(0)  0.5415(0)  1.000 2 i ? d Uani  0.05576(19) ? ?
Ce47 Ce  0.1154(0)  0.7407(0)  0.5824(0)  1.000 2 i ? d Uani  0.05355(18) ? ?
Ce48 Ce  0.2651(0)  0.565()  0.5519(0)  1.000 2 i ? d Uani  0.05373(19) ? ?
Ce49 Ce  0.1956(0)  0.7565(0)  0.5127(0)  1.000 2 i ? d Uani  0.0575(2) ? ?
Ce50 Ce  0.8688(0)  0.2782(0)  0.9211(0)  1.000 2 i ? d Uani  0.05432(19) ? ?
Ce51 Ce  0.2109(0)  0.4524(0)  0.4404(0)  1.000 2 i ? d Uani  0.05549(19) ? ?
Ce52 Ce  0.6561(0)  0.6172(0)  1.0363(0)  1.000 2 i ? d Uani  0.05584(19) ? ?
Ce53 Ce  0.5657(0)  0.7257(0)  1.0032(0)  1.000 2 i ? d Uani  0.05451(19) ? ?
Ce54 Ce  0.5337(0)  0.8309(0)  0.8751(0)  1.000 2 i ? d Uani  0.05467(19) ? ?
Ce55 Ce  0.8893(0)  0.1706(0)  0.9625(0)  1.000 2 i ? d Uani  0.05731(19) ? ?
Ce56 Ce  0.2592(0)  0.5321(0)  0.4527(0)  1.000 2 i ? d Uani  0.0587(2) ? ?
Ce57 Ce  0.8494(0)  0.0917(0)  0.8787(0)  1.000 2 i ? d Uani  0.05705(19) ? ?
Ce58 Ce  0.8081(0)  0.5044(0)  0.9759(0)  1.000 2 i ? d Uani  0.0569(2) ? ?
Ce59 Ce  0.7344(0)  0.6288(0)  0.9635(0)  1.000 2 i ? d Uani  0.0586(2) ? ?
Ce60 Ce  0.7807(0)  0.0478(0)  0.7839(0)  1.000 2 i ? d Uani  0.0584(2) ? ?
Ce61 Ce  0.6419(0)  0.7389(0)  0.9303(0)  1.000 2 i ? d Uani  0.0578(2) ? ?
Ce62 Ce  0.852()  0.4235(0)  1.057()  1.000 2 i ? d Uani  0.0595(2) ? ?
Ce63 Ce  0.095()  0.8481(0)  0.5401(0)  1.000 2 i ? d Uani  0.0602(2) ? ?
Ce64 Ce  0.7813(0)  0.5696(0)  1.0555(0)  1.000 2 i ? d Uani  0.0609(2) ? ?
Ce65 Ce  0.2114(0)  0.6492(0)  0.4694(0)  1.000 2 i ? d Uani  0.0690(3) ? ?
Ce66 Ce  0.4308(0)  0.9212(0)  0.9037(0)  1.000 2 i ? d Uani  0.0605(2) ? ?
Ce67 Ce  0.5615(0)  0.8312(0)  0.9753(0)  1.000 2 i ? d Uani  0.0622(2) ? ?
Ce68 Ce  0.0966(0)  0.7315(0)  0.482()  1.000 2 i ? d Uani  0.0682(3) ? ?
Ce69 Ce  0.1319(0)  0.5978(0)  0.4453(0)  1.000 2 i ? d Uani  0.0682(2) ? ?
Ce70 Ce  0.686()  0.7122(0)  1.0295(0)  1.000 2 i ? d Uani  0.0689(2) ? ?
Ce72 Ce  0.5791(0)  0.3733(0)  0.5067(0)  0.500 2 i ? d Uani  0.0506(4) A 1
Ce73 Ce  0.6092(1)  0.3479(1)  0.5281(1)  0.500 2 i ? d Uani  0.0693(5) A 2
Ce74 Ce  0.4932(0)  0.8029(0)  0.6522(0)  1.000 2 i ? d Uani  0.0600(2) ? ?
Ce75 Ce  0.1774(0)  0.733()  0.8101(0)  1.000 2 i ? d Uani  0.0613(2) ? ?
Ce76 Ce  0.4602(1)  0.2912(1)  0.8031(0)  0.500 2 i ? d Uiso  0.0606(4) ? ?
Ce77 Ce  0.5807(0)  0.3435(0)  0.9935(0)  1.000 2 i ? d Uani  0.0600(2) ? ?
Co1 Co  0.4319(2)  0.0344(1)  0.6983(1)  1.000 2 i ? d Uani  0.1082(12) ? ?
S1 S  0.3214(1)  0.7776(1)  0.6283(1)  1.000 2 i ? d Uani  0.0507(7) ? ?
S2 S  0.4172(1)  0.2416(1)  0.4200(1)  1.000 2 i ? d Uani  0.0493(7) ? ?
S3 S  0.6757(1)  0.2674(1)  1.0321(1)  1.000 2 i ? d Uani  0.0504(7) ? ?
S4 S  0.4319(1)  0.8043(1)  0.7453(1)  1.000 2 i ? d Uani  0.0478(7) ? ?
S5 S  0.2213(1)  0.7582(1)  0.7145(1)  1.000 2 i ? d Uani  0.0518(7) ? ?
S6 S  0.5062(1)  0.3228(1)  0.5633(1)  1.000 2 i ? d Uani  0.0479(7) ? ?
S7 S  0.6879(1)  0.3632(1)  0.9604(1)  1.000 2 i ? d Uani  0.0486(7) ? ?
S8 S  0.1893(1)  0.3593(1)  0.4692(1)  1.000 2 i ? d Uani  0.0593(9) ? ?
S9 S  0.6194(1)  0.2546(1)  0.5021(1)  1.000 2 i ? d Uani  0.0490(7) ? ?
S10 S  0.1842(1)  0.9992(1)  0.8116(1)  1.000 2 i ? d Uani  0.0548(8) ? ?
S11 S  0.6570(1)  0.2384(1)  0.6658(1)  1.000 2 i ? d Uani  0.0527(7) ? ?
S12 S  0.3348(1)  0.7811(1)  0.8327(1)  1.000 2 i ? d Uani  0.0499(7) ? ?
S13 S  0.6195(1)  0.5412(1)  0.9869(1)  1.000 2 i ? d Uani  0.0589(9) ? ?
S14 S  0.6639(1)  0.2412(1)  0.8719(1)  1.000 2 i ? d Uani  0.0531(8) ? ?
S15 S  0.4082(1)  0.2991(1)  0.6473(1)  1.000 2 i ? d Uani  0.0551(8) ? ?
S16 S  0.4840(1)  0.7017(1)  0.9371(1)  1.000 2 i ? d Uani  0.0512(7) ? ?
S17 S  0.5842(1)  0.7186(1)  0.8487(1)  1.000 2 i ? d Uani  0.0549(8) ? ?
S18 S  0.5498(1)  0.1230(1)  0.4907(1)  1.000 2 i ? d Uani  0.0512(7) ? ?
S19 S  0.6858(1)  0.0474(1)  0.5845(1)  1.000 2 i ? d Uani  0.0616(9) ? ?
S20 S  0.7642(1)  0.2614(1)  0.7877(1)  1.000 2 i ? d Uani  0.0586(8) ? ?
S21 S  0.2005(1)  0.6356(1)  0.6251(1)  1.000 2 i ? d Uani  0.0547(8) ? ?
S22 S  0.0300(1)  0.9133(1)  0.6108(1)  1.000 2 i ? d Uani  0.0626(9) ? ?
S23 S  0.3070(2)  0.9702(1)  0.9138(1)  1.000 2 i ? d Uani  0.0637(9) ? ?
S24 S  0.9761(1)  0.2135(1)  0.9713(1)  1.000 2 i ? d Uani  0.0666(10) ? ?
S25 S  0.5569(1)  0.2169(1)  0.7497(1)  1.000 2 i ? d Uani  0.0549(8) ? ?
S26 S  0.3691(1)  0.4838(1)  0.5135(1)  1.000 2 i ? d Uani  0.0633(9) ? ?
S27 S  0.8044(1)  0.0183(1)  0.6898(1)  1.000 2 i ? d Uani  0.0608(9) ? ?
S28 S  0.3160(1)  0.2143(1)  0.5045(1)  1.000 2 i ? d Uani  0.0597(9) ? ?
S29 S  0.2828(1)  1.0260(1)  0.7239(1)  1.000 2 i ? d Uani  0.0566(8) ? ?
S30 S  0.7026(2)  0.3413(1)  0.4616(1)  1.000 2 i ? d Uani  0.0596(9) ? ?
S31 S  0.7175(1)  0.5571(1)  0.8978(1)  1.000 2 i ? d Uani  0.0593(8) ? ?
S32 S  0.2702(1)  0.4628(1)  0.5999(1)  1.000 2 i ? d Uani  0.0526(7) ? ?
S33 S  0.8737(1)  0.1933(1)  1.0585(1)  1.000 2 i ? d Uani  0.0593(8) ? ?
S34 S  0.7874(1)  0.3818(1)  0.8762(1)  1.000 2 i ? d Uani  0.0577(8) ? ?
S35 S  0.4823(1)  0.6929(1)  1.0538(1)  1.000 2 i ? d Uani  0.066(1) ? ?
S36 S  0.4480(1)  0.1011(1)  0.5776(1)  1.000 2 i ? d Uani  0.0573(8) ? ?
S37 S  0.1946(2)  1.0001(1)  0.6147(1)  1.000 2 i ? d Uani  0.0612(9) ? ?
S38 S  0.8475(1)  0.3323(1)  1.1101(1)  1.000 2 i ? d Uani  0.0566(8) ? ?
S39 S  0.0896(1)  0.9830(1)  0.7025(1)  1.000 2 i ? d Uani  0.0595(9) ? ?
S40 S  0.2869(2)  0.3827(1)  0.3787(1)  1.000 2 i ? d Uani  0.0651(9) ? ?
S41 S  0.9562(1)  0.3462(1)  1.0252(1)  1.000 2 i ? d Uani  0.0633(10) ? ?
S42 S  0.9564(1)  0.1052(1)  0.8934(1)  1.000 2 i ? d Uani  0.066(1) ? ?
S43 S  0.1327(2)  0.9335(1)  0.5210(1)  1.000 2 i ? d Uani  0.0611(9) ? ?
S44 S  0.0927(2)  0.5142(1)  0.4578(2)  1.000 2 i ? d Uani  0.0755(12) ? ?
S45 S  0.7945(2)  0.0176(1)  0.8827(1)  1.000 2 i ? d Uani  0.0715(10) ? ?
S46 S  0.8529(2)  0.0841(1)  0.9794(1)  1.000 2 i ? d Uani  0.0671(10) ? ?
S47 S  0.0283(2)  0.6666(1)  0.4890(1)  1.000 2 i ? d Uani  0.0686(11) ? ?
S48 S  0.1908(2)  0.5375(1)  0.3692(1)  1.000 2 i ? d Uani  0.0798(13) ? ?
S49 S  0.4223(2)  0.8976(1)  0.6573(1)  1.000 2 i ? d Uani  0.0719(11) ? ?
S50 S  0.7951(2)  0.4879(1)  1.1298(1)  1.000 2 i ? d Uani  0.0717(11) ? ?
S51 S  0.4462(2)  0.8979(1)  1.0030(1)  1.000 2 i ? d Uani  0.0721(11) ? ?
S52 S  0.7001(2) -0.0025(1)  0.7757(1)  1.000 2 i ? d Uani  0.0712(11) ? ?
S53 S  0.5849(2)  0.0240(1)  0.6696(1)  1.000 2 i ? d Uani  0.0665(10) ? ?
S54 S  0.6862(2)  0.8054(1)  0.9761(2)  1.000 2 i ? d Uani  0.0762(12) ? ?
S55 S  0.8971(1)  0.0408(2)  0.7963(1)  1.000 2 i ? d Uani  0.0759(12) ? ?
S56 S  0.5459(2)  0.9211(1)  0.9136(2)  1.000 2 i ? d Uani  0.0799(13) ? ?
S57 S  0.8091(2)  0.6586(2)  1.0215(2)  1.000 2 i ? d Uani  0.0824(14) ? ?
S58 S  0.7085(2)  0.6448(2)  1.1149(2)  1.000 2 i ? d Uani  0.0808(12) ? ?
S59 S  0.8981(2)  0.5036(2)  1.0404(2)  1.000 2 i ? d Uani  0.0805(13) ? ?
S60 S  0.4053(2)  0.9964(1)  0.8241(1)  1.000 2 i ? d Uani  0.0669(10) ? ?
S61 S  0.5901(2)  0.7905(2)  1.0707(1)  1.000 2 i ? d Uani  0.0751(11) ? ?
S62 S  0.0078(2)  0.8063(1)  0.5294(2)  1.000 2 i ? d Uani  0.0863(15) ? ?
S63 S  0.1132(2)  0.8249(1)  0.4436(1)  1.000 2 i ? d Uani  0.0872(16) ? ?
S64 S  0.1255(2)  0.8318(2)  0.7898(1)  1.000 2 i ? d Uani  0.0774(11) ? ?
S65 S  0.6393(2)  0.4563(2)  1.0888(2)  1.000 2 i ? d Uani  0.0843(13) ? ?
S66 S  0.4690(2)  0.1493(2)  0.7563(2)  1.000 2 i ? d Uani  0.1007(17) ? ?
S67 S  0.1145(3)  0.6938(2)  0.3933(2)  1.000 2 i ? d Uani  0.1007(17) ? ?
S68 S  0.6010(3)  0.8192(3)  0.7889(2)  1.000 2 i ? d Uani  0.124(2) ? ?
O1 O  0.6700(4)  0.2365(3)  1.0604(3)  1.000 2 i ? d Uani  0.061(3) ? ?
O2 O  0.1385(3)  0.8780(2)  0.6656(2)  1.000 2 i ? d Uani  0.0415(18) ? ?
O3 O  0.3656(3)  0.3380(2)  0.4598(3)  1.000 2 i ? d Uani  0.046(2) ? ?
O4 O  0.2363(3)  0.8380(3)  0.7681(3)  1.000 2 i ? d Uani  0.052(2) ? ?
O5 O  0.5909(3)  0.2290(3)  0.5076(3)  1.000 2 i ? d Uani  0.055(2) ? ?
O6 O  0.7255(3)  0.2589(3)  1.0282(3)  1.000 2 i ? d Uani  0.052(2) ? ?
O7 O  0.3218(3)  0.4052(3)  0.5210(3)  1.000 2 i ? d Uani  0.047(2) ? ?
O8 O  0.6715(3)  0.6169(3)  0.9764(3)  1.000 2 i ? d Uani  0.059(2) ? ?
O9 O  0.7818(3)  0.4268(3)  1.0567(3)  1.000 2 i ? d Uani  0.057(2) ? ?
O10 O  0.2312(3)  0.3254(3)  0.4559(3)  1.000 2 i ? d Uani  0.062(3) ? ?
O11 O  0.4282(3)  0.2026(3)  0.4459(3)  1.000 2 i ? d Uani  0.055(2) ? ?
O12 O  0.1345(3)  0.8693(3)  0.5902(2)  1.000 2 i ? d Uani  0.0423(18) ? ?
O13 O  0.2452(3)  0.5271(3)  0.5133(3)  1.000 2 i ? d Uani  0.054(2) ? ?
O14 O  0.4034(3)  0.7992(3)  0.9050(3)  1.000 2 i ? d Uani  0.049(2) ? ?
O15 O  0.7981(3)  0.0936(3)  0.8286(3)  1.000 2 i ? d Uani  0.052(2) ? ?
O16 O  0.4406(3)  0.2679(3)  0.4337(2)  1.000 2 i ? d Uani  0.048(2) ? ?
O17 O  0.2958(3)  0.3214(3)  0.5183(3)  1.000 2 i ? d Uani  0.058(2) ? ?
O18 O  0.7080(3)  0.4382(3)  1.0158(3)  1.000 2 i ? d Uani  0.054(2) ? ?
O19 O  0.4326(3)  0.2296(3)  0.3822(3)  1.000 2 i ? d Uani  0.054(2) ? ?
O20 O  0.5639(3)  0.0911(3)  0.5234(3)  1.000 2 i ? d Uani  0.050(2) ? ?
O21 O  0.2687(3)  0.9349(3)  0.6892(3)  1.000 2 i ? d Uani  0.048(2) ? ?
O22 O  0.7417(3)  0.4957(3)  0.9867(3)  1.000 2 i ? d Uani  0.053(2) ? ?
O23 O  0.1878(3)  0.9280(3)  0.6720(3)  1.000 2 i ? d Uani  0.048(2) ? ?
O24 O  0.7173(3)  0.0861(3)  0.8094(3)  1.000 2 i ? d Uani  0.057(2) ? ?
O25 O  0.3105(3)  0.8627(3)  0.7595(3)  1.000 2 i ? d Uani  0.053(2) ? ?
O26 O  0.8502(3)  0.1489(3)  0.9116(3)  1.000 2 i ? d Uani  0.053(2) ? ?
O27 O  0.8859(3)  0.2099(3)  0.9130(3)  1.000 2 i ? d Uani  0.055(2) ? ?
O28 O  0.6316(3)  0.6879(3)  1.0345(3)  1.000 2 i ? d Uani  0.057(2) ? ?
O29 O  0.3822(3)  0.2635(2)  0.5023(2)  1.000 2 i ? d Uani  0.0379(17) ? ?
O30 O  0.4064(3)  0.2161(2)  0.5686(3)  1.000 2 i ? d Uani  0.045(2) ? ?
O31 O  0.8099(3)  0.3041(3)  1.0236(3)  1.000 2 i ? d Uani  0.050(2) ? ?
O32 O  0.3966(3)  0.7917(3)  0.7294(3)  1.000 2 i ? d Uani  0.055(2) ? ?
O33 O  0.7830(3)  0.2221(3)  0.8849(3)  1.000 2 i ? d Uani  0.051(2) ? ?
O34 O  0.5641(3)  0.1586(3)  0.4976(3)  1.000 2 i ? d Uani  0.054(2) ? ?
O35 O  0.5900(3)  0.1476(3)  0.5767(3)  1.000 2 i ? d Uani  0.047(2) ? ?
O36 O  0.4767(3)  0.2318(2)  0.5092(3)  1.000 2 i ? d Uani  0.046(2) ? ?
O37 O  0.3160(3)  0.8267(3)  0.8388(3)  1.000 2 i ? d Uani  0.056(2) ? ?
O38 O  0.6146(3)  0.0994(3)  0.6434(3)  1.000 2 i ? d Uani  0.051(2) ? ?
O39 O  0.1550(4)  0.9900(3)  0.6064(3)  1.000 2 i ? d Uani  0.062(3) ? ?
O40 O  0.8464(3)  0.1422(3)  0.8365(3)  1.000 2 i ? d Uani  0.053(2) ? ?
O41 O  0.2070(3)  0.6223(2)  0.5271(3)  1.000 2 i ? d Uani  0.047(2) ? ?
O42 O  0.2010(3)  0.9200(3)  0.7498(3)  1.000 2 i ? d Uani  0.048(2) ? ?
O43 O  0.3316(3)  0.8590(3)  0.6823(3)  1.000 2 i ? d Uani  0.052(2) ? ?
O44 O  0.2027(3)  0.7959(3)  0.6181(2)  1.000 2 i ? d Uani  0.0452(19) ? ?
O45 O  0.2949(3)  0.9109(2)  0.8380(2)  1.000 2 i ? d Uani  0.0435(19) ? ?
O46 O  0.1490(4)  0.3465(3)  0.4705(3)  1.000 2 i ? d Uani  0.067(3) ? ?
O47 O  0.4461(4)  0.6928(3)  0.9545(3)  1.000 2 i ? d Uani  0.059(2) ? ?
O48 O  0.8491(3)  0.3632(3)  1.0247(3)  1.000 2 i ? d Uani  0.048(2) ? ?
O49 O  0.2780(4)  0.5842(3)  0.4830(3)  1.000 2 i ? d Uani  0.056(2) ? ?
O50 O  0.2080(3)  0.8916(3)  0.6040(3)  1.000 2 i ? d Uani  0.049(2) ? ?
O51 O  0.4708(4)  0.7179(3)  0.8974(3)  1.000 2 i ? d Uani  0.057(2) ? ?
O52 O  0.6504(4)  0.3106(3)  1.0427(3)  1.000 2 i ? d Uani  0.062(3) ? ?
O53 O  0.2494(3)  0.8494(3)  0.6910(2)  1.000 2 i ? d Uani  0.0459(19) ? ?
O54 O  0.3138(3)  0.3534(3)  0.5808(3)  1.000 2 i ? d Uani  0.052(2) ? ?
O55 O  0.3659(3)  0.2639(3)  0.4188(3)  1.000 2 i ? d Uani  0.051(2) ? ?
O56 O  0.7508(3)  0.1832(3)  0.7333(3)  1.000 2 i ? d Uani  0.050(2) ? ?
O57 O  0.4105(3)  0.8494(3)  0.7533(3)  1.000 2 i ? d Uani  0.053(2) ? ?
O58 O  0.2400(4)  0.4136(3)  0.3869(3)  1.000 2 i ? d Uani  0.068(3) ? ?
O59 O  0.9648(4)  0.1763(4)  0.9738(3)  1.000 2 i ? d Uani  0.062(3) ? ?
O60 O  0.7802(3)  0.3969(3)  0.9733(3)  1.000 2 i ? d Uani  0.049(2) ? ?
O61 O  0.1875(4)  0.5621(3)  0.5675(3)  1.000 2 i ? d Uani  0.059(3) ? ?
O62 O  0.4912(3)  0.7953(3)  0.8935(3)  1.000 2 i ? d Uani  0.049(2) ? ?
O63 O  0.7871(3)  0.1006(3)  0.7512(3)  1.000 2 i ? d Uani  0.058(2) ? ?
O64 O  0.5915(3)  0.2208(3)  0.5932(2)  1.000 2 i ? d Uani  0.0445(19) ? ?
O65 O  0.6272(3)  0.0917(3)  0.7198(3)  1.000 2 i ? d Uani  0.049(2) ? ?
O66 O  0.5865(3)  0.1802(2)  0.6591(3)  1.000 2 i ? d Uani  0.048(2) ? ?
O67 O  0.5038(3)  0.2261(3)  0.6017(2)  1.000 2 i ? d Uani  0.046(2) ? ?
O68 O  0.3050(4)  0.7460(3)  0.6211(4)  1.000 2 i ? d Uani  0.070(3) ? ?
O69 O  0.8025(4)  0.4561(3)  0.9326(3)  1.000 2 i ? d Uani  0.059(2) ? ?
O70 O  0.2366(4)  1.0272(3)  0.7148(3)  1.000 2 i ? d Uani  0.058(2) ? ?
O71 O  0.4347(4)  0.7173(3)  1.0354(4)  1.000 2 i ? d Uani  0.069(3) ? ?
O72 O  0.4988(3)  0.1644(3)  0.5627(3)  1.000 2 i ? d Uani  0.046(2) ? ?
O73 O  0.5001(3)  0.2917(3)  0.5397(3)  1.000 2 i ? d Uani  0.051(2) ? ?
O74 O  0.7163(4)  0.5585(3)  1.0561(3)  1.000 2 i ? d Uani  0.064(3) ? ?
O75 O  0.6557(4)  0.2340(3)  0.4755(4)  1.000 2 i ? d Uani  0.072(3) ? ?
O76 O  0.2697(3)  0.9453(3)  0.7648(3)  1.000 2 i ? d Uani  0.049(2) ? ?
O77 O  0.6458(4)  0.5031(3)  0.9687(3)  1.000 2 i ? d Uani  0.066(3) ? ?
O78 O  0.7785(4)  0.1277(3)  0.8952(3)  1.000 2 i ? d Uani  0.058(2) ? ?
O79 O  0.3124(4)  0.2348(3)  0.5414(3)  1.000 2 i ? d Uani  0.064(3) ? ?
O80 O  0.4942(3)  0.8229(3)  0.8198(3)  1.000 2 i ? d Uani  0.053(2) ? ?
O81 O  0.7288(3)  0.3401(3)  0.9873(3)  1.000 2 i ? d Uani  0.050(2) ? ?
O82 O  0.6959(3)  0.1080(3)  0.6612(3)  1.000 2 i ? d Uani  0.054(2) ? ?
O83 O  0.6753(3)  0.6665(3)  0.9136(3)  1.000 2 i ? d Uani  0.055(2) ? ?
O84 O  0.7179(3)  0.0754(3)  0.7349(3)  1.000 2 i ? d Uani  0.054(2) ? ?
O85 O  0.2753(4)  0.4663(3)  0.4422(3)  1.000 2 i ? d Uani  0.061(3) ? ?
O86 O  0.1540(3)  0.7480(2)  0.6388(3)  1.000 2 i ? d Uani  0.048(2) ? ?
O87 O  0.6400(4)  0.2568(4)  0.5381(3)  1.000 2 i ? d Uani  0.077(3) ? ?
O88 O  0.1774(4)  0.3985(3)  0.4439(3)  1.000 2 i ? d Uani  0.063(3) ? ?
O89 O  0.1680(4)  0.8225(3)  0.5301(3)  1.000 2 i ? d Uani  0.054(2) ? ?
O90 O  0.6386(4)  0.0511(3)  0.5760(3)  1.000 2 i ? d Uani  0.060(2) ? ?
O91 O  0.1989(4)  0.3674(3)  0.5072(3)  1.000 2 i ? d Uani  0.057(2) ? ?
O92 O  0.0989(3)  0.8082(3)  0.5911(3)  1.000 2 i ? d Uani  0.052(2) ? ?
O93 O  0.5209(3)  0.1322(3)  0.6361(3)  1.000 2 i ? d Uani  0.056(2) ? ?
O94 O  0.6498(4)  0.5483(4)  1.0172(3)  1.000 2 i ? d Uani  0.063(3) ? ?
O95 O  0.4924(3)  0.7335(3)  0.9583(3)  1.000 2 i ? d Uani  0.053(2) ? ?
O96 O  0.4036(4)  0.8412(3)  0.8360(3)  1.000 2 i ? d Uani  0.052(2) ? ?
O97 O  0.3017(3)  0.2470(3)  0.4734(3)  1.000 2 i ? d Uani  0.056(2) ? ?
O98 O  0.4965(3)  0.3093(3)  0.4596(3)  1.000 2 i ? d Uani  0.061(3) ? ?
O99 O  0.6445(3)  0.3685(3)  0.9787(3)  1.000 2 i ? d Uani  0.058(2) ? ?
O100 O  0.2512(3)  0.7657(3)  0.5540(3)  1.000 2 i ? d Uani  0.051(2) ? ?
O101 O  0.8673(3)  0.2440(3)  0.9801(3)  1.000 2 i ? d Uani  0.052(2) ? ?
O102 O  0.3989(3)  0.3143(3)  0.5483(3)  1.000 2 i ? d Uani  0.0439(19) ? ?
O103 O  0.7199(3)  0.6336(3)  1.0285(3)  1.000 2 i ? d Uani  0.055(2) ? ?
O104 O  0.4952(3)  0.2006(3)  0.6734(2)  1.000 2 i ? d Uani  0.0454(19) ? ?
O105 O  0.2741(3)  0.3878(3)  0.4659(3)  1.000 2 i ? d Uani  0.049(2) ? ?
O106 O  0.4027(3)  0.2676(3)  0.6232(3)  1.000 2 i ? d Uani  0.053(2) ? ?
O107 O  0.3295(4)  0.7780(3)  0.6687(3)  1.000 2 i ? d Uani  0.063(3) ? ?
O108 O  0.8802(3)  0.3167(3)  0.9636(3)  1.000 2 i ? d Uani  0.055(2) ? ?
O109 O  0.9356(4)  0.3624(4)  0.9859(4)  1.000 2 i ? d Uani  0.072(3) ? ?
O110 O  0.4562(3)  0.2886(3)  0.6563(3)  1.000 2 i ? d Uani  0.060(3) ? ?
O111 O  0.6554(3)  0.2677(3)  0.9949(3)  1.000 2 i ? d Uani  0.060(2) ? ?
O112 O  0.1880(3)  0.8009(3)  0.6990(3)  1.000 2 i ? d Uani  0.048(2) ? ?
O113 O  0.4703(3)  0.7985(3)  0.7193(3)  1.000 2 i ? d Uani  0.061(3) ? ?
O114 O  0.9005(4)  0.0426(4)  0.8370(3)  1.000 2 i ? d Uani  0.075(3) ? ?
O115 O  0.6962(4)  0.3853(3)  0.4561(4)  1.000 2 i ? d Uani  0.065(3) ? ?
O116 O  0.7951(3)  0.2900(3)  0.9336(3)  1.000 2 i ? d Uani  0.052(2) ? ?
O117 O  0.9351(4)  0.1431(4)  0.8661(3)  1.000 2 i ? d Uani  0.069(3) ? ?
O118 O  0.6821(4)  0.2746(3)  0.8731(3)  1.000 2 i ? d Uani  0.061(3) ? ?
O119 O  0.2353(4)  0.7320(3)  0.6835(2)  1.000 2 i ? d Uani  0.056(2) ? ?
O120 O  0.4347(4)  0.1312(4)  0.6077(3)  1.000 2 i ? d Uani  0.069(3) ? ?
O121 O  0.6759(3)  0.1593(3)  0.7401(3)  1.000 2 i ? d Uani  0.056(2) ? ?
O122 O  0.5956(3)  0.7066(3)  0.9478(3)  1.000 2 i ? d Uani  0.053(2) ? ?
O123 O  0.1321(4)  0.8590(3)  0.7577(3)  1.000 2 i ? d Uani  0.066(3) ? ?
O124 O  0.1732(4)  1.0094(3)  0.7708(3)  1.000 2 i ? d Uani  0.055(2) ? ?
O125 O  0.5711(3)  0.1039(3)  0.4563(3)  1.000 2 i ? d Uani  0.058(2) ? ?
O126 O  0.8351(5)  0.0273(4)  0.8926(4)  1.000 2 i ? d Uani  0.092(4) ? ?
O127 O  0.3652(3)  0.1857(3)  0.4982(3)  1.000 2 i ? d Uani  0.059(2) ? ?
O128 O  0.1993(3)  0.7398(3)  0.7428(3)  1.000 2 i ? d Uani  0.053(2) ? ?
O129 O  0.5873(3)  0.8045(3)  0.9225(3)  1.000 2 i ? d Uani  0.059(2) ? ?
O130 O  0.7010(3)  0.1982(3)  0.8846(3)  1.000 2 i ? d Uani  0.049(2) ? ?
O131 O  0.3885(4)  0.3420(3)  0.6280(3)  1.000 2 i ? d Uani  0.068(3) ? ?
O132 O  0.7970(4)  0.0627(3)  0.6801(3)  1.000 2 i ? d Uani  0.064(3) ? ?
O133 O  0.9017(3)  0.4626(4)  1.0601(4)  1.000 2 i ? d Uani  0.070(3) ? ?
O134 O  0.3307(4)  0.7750(3)  0.7933(3)  1.000 2 i ? d Uani  0.058(2) ? ?
O135 O  0.0529(4)  0.6483(3)  0.5258(3)  1.000 2 i ? d Uani  0.067(3) ? ?
O136 O  0.7476(4) -0.0062(3)  0.7858(4)  1.000 2 i ? d Uani  0.072(3) ? ?
O137 O  0.6723(5)  0.6314(4)  1.1020(4)  1.000 2 i ? d Uani  0.081(3) ? ?
O138 O  0.8621(3)  0.3687(3)  1.1083(3)  1.000 2 i ? d Uani  0.054(2) ? ?
O139 O  0.8161(3)  0.1958(3)  0.9713(3)  1.000 2 i ? d Uani  0.046(2) ? ?
O140 O  0.5133(5)  0.7146(4)  1.0445(4)  1.000 2 i ? d Uani  0.076(3) ? ?
O141 O  0.9521(4)  0.1183(3)  0.9321(3)  1.000 2 i ? d Uani  0.062(3) ? ?
O142 O  0.0847(4)  0.9814(3)  0.6621(3)  1.000 2 i ? d Uani  0.060(2) ? ?
O143 O  0.4302(5)  0.8632(4)  0.9965(3)  1.000 2 i ? d Uani  0.077(3) ? ?
O144 O  0.0869(4)  0.5562(3)  0.4395(4)  1.000 2 i ? d Uani  0.085(4) ? ?
O145 O  0.5829(3)  0.6504(3)  1.0015(3)  1.000 2 i ? d Uani  0.057(2) ? ?
O146 O  0.1894(3)  0.5230(3)  0.4581(3)  1.000 2 i ? d Uani  0.057(2) ? ?
O147 O  0.3218(5)  0.3972(3)  0.3952(3)  1.000 2 i ? d Uani  0.071(3) ? ?
O148 O  0.5913(4)  0.2983(3)  0.4879(3)  1.000 2 i ? d Uani  0.063(3) ? ?
O149 O  0.8965(4)  0.2231(3)  1.0600(3)  1.000 2 i ? d Uani  0.059(2) ? ?
O150 O  0.5894(4)  0.6818(4)  0.8738(3)  1.000 2 i ? d Uani  0.068(3) ? ?
O151 O  0.1893(4)  0.7279(2)  0.5696(3)  1.000 2 i ? d Uani  0.052(2) ? ?
O152 O  0.5935(4)  0.2282(4)  0.7659(4)  1.000 2 i ? d Uani  0.074(3) ? ?
O153 O  0.6855(4)  0.0908(3)  0.5822(3)  1.000 2 i ? d Uani  0.066(3) ? ?
O154 O  0.6869(3)  0.4050(3)  0.9488(3)  1.000 2 i ? d Uani  0.056(2) ? ?
O155 O  0.1235(3)  1.0031(3)  0.7103(3)  1.000 2 i ? d Uani  0.059(3) ? ?
O156 O  0.2642(3)  0.7616(3)  0.7306(3)  1.000 2 i ? d Uani  0.052(2) ? ?
O157 O  0.9618(4)  0.2377(4)  1.0053(3)  1.000 2 i ? d Uani  0.064(3) ? ?
O158 O  0.9306(4)  0.0759(4)  0.8908(3)  1.000 2 i ? d Uani  0.072(3) ? ?
O159 O  0.4606(3)  0.3556(3)  0.5701(4)  1.000 2 i ? d Uani  0.070(3) ? ?
O160 O  0.4981(4)  0.1392(3)  0.4863(3)  1.000 2 i ? d Uani  0.056(2) ? ?
O161 O  0.0338(5)  0.9007(3)  0.5712(4)  1.000 2 i ? d Uani  0.077(3) ? ?
O162 O  0.7383(3)  0.1709(3)  0.8089(3)  1.000 2 i ? d Uani  0.055(2) ? ?
O163 O  0.2937(4)  0.3400(3)  0.3966(3)  1.000 2 i ? d Uani  0.058(2) ? ?
O164 O  0.1353(4)  0.5810(3)  0.5040(3)  1.000 2 i ? d Uani  0.062(3) ? ?
O165 O  0.2264(3)  1.0074(3)  0.8202(3)  1.000 2 i ? d Uani  0.055(2) ? ?
O166 O  0.4511(4)  0.7772(3)  0.7798(3)  1.000 2 i ? d Uani  0.062(3) ? ?
O167 O  0.0503(3)  0.8747(3)  0.6382(3)  1.000 2 i ? d Uani  0.065(3) ? ?
O168 O  0.2855(3)  0.8204(3)  0.6148(3)  1.000 2 i ? d Uani  0.054(2) ? ?
O169 O  0.4040(4)  0.8725(3)  0.9184(3)  1.000 2 i ? d Uani  0.065(3) ? ?
O170 O  0.1993(5)  0.5966(3)  0.4433(3)  1.000 2 i ? d Uani  0.072(3) ? ?
O171 O  0.6068(4)  0.2568(3)  0.6565(4)  1.000 2 i ? d Uani  0.069(3) ? ?
O172 O  0.0202(4)  0.8427(3)  0.5290(3)  1.000 2 i ? d Uani  0.066(3) ? ?
O173 O  0.5198(3)  0.7908(3)  0.9842(3)  1.000 2 i ? d Uani  0.059(3) ? ?
O174 O  0.6040(4)  0.5786(3)  0.9600(3)  1.000 2 i ? d Uani  0.060(3) ? ?
O175 O  0.5754(4)  0.1713(3)  0.7432(3)  1.000 2 i ? d Uani  0.060(2) ? ?
O176 O  0.6997(4)  0.0268(3)  0.6238(3)  1.000 2 i ? d Uani  0.065(3) ? ?
O177 O  0.2344(6)  0.5391(3)  0.3846(4)  1.000 2 i ? d Uani  0.098(5) ? ?
O178 O  0.3622(3)  0.9279(3)  0.7753(3)  1.000 2 i ? d Uani  0.048(2) ? ?
O179 O  0.7628(3)  0.0104(3)  0.6806(3)  1.000 2 i ? d Uani  0.056(2) ? ?
O180 O  0.9500(4)  0.3065(3)  1.0364(4)  1.000 2 i ? d Uani  0.072(3) ? ?
O181 O  0.5267(3)  0.6623(3)  0.9392(3)  1.000 2 i ? d Uiso  0.053(2) ? ?
O182 O  0.7971(4)  0.6499(4)  0.9827(4)  1.000 2 i ? d Uani  0.078(3) ? ?
O183 O  0.3172(4)  0.8897(4)  0.5991(3)  1.000 2 i ? d Uani  0.071(3) ? ?
O184 O  0.8533(3)  0.4371(4)  0.9967(3)  1.000 2 i ? d Uani  0.066(3) ? ?
O185 O  0.4339(4)  0.1260(3)  0.5406(3)  1.000 2 i ? d Uani  0.061(3) ? ?
O186 O  0.1452(3)  1.0258(3)  0.8333(3)  1.000 2 i ? d Uani  0.055(2) ? ?
O187 O  0.1952(4)  0.9538(3)  0.8223(3)  1.000 2 i ? d Uani  0.058(2) ? ?
O188 O  0.8193(5)  0.6209(5)  1.0479(4)  1.000 2 i ? d Uani  0.094(4) ? ?
O189 O  0.1605(3)  0.6590(3)  0.5976(3)  1.000 2 i ? d Uani  0.054(2) ? ?
O190 O  0.8027(4)  0.1174(3)  0.9753(3)  1.000 2 i ? d Uani  0.069(3) ? ?
O191 O  0.6248(4)  0.2501(4)  0.8971(4)  1.000 2 i ? d Uani  0.077(3) ? ?
O192 O  0.3641(4)  0.7710(3)  0.6091(3)  1.000 2 i ? d Uani  0.064(3) ? ?
O193 O  0.5622(4)  0.7645(4)  1.0629(3)  1.000 2 i ? d Uani  0.071(3) ? ?
O194 O  0.2068(3)  0.4504(3)  0.5028(3)  1.000 2 i ? d Uani  0.056(2) ? ?
O195 O  0.2721(3)  0.8405(3)  0.5270(3)  1.000 2 i ? d Uani  0.060(2) ? ?
O196 O  0.7339(3)  0.2522(3)  0.9453(3)  1.000 2 i ? d Uani  0.051(2) ? ?
O197 O  0.3074(4)  0.9269(3)  0.9161(3)  1.000 2 i ? d Uani  0.067(3) ? ?
O198 O  0.3382(3)  0.4773(3)  0.4835(3)  1.000 2 i ? d Uani  0.057(2) ? ?
O199 O  0.4700(4)  0.7851(4)  0.5898(3)  1.000 2 i ? d Uani  0.078(3) ? ?
O200 O  0.3926(5)  0.4232(4)  0.4220(4)  1.000 2 i ? d Uani  0.079(3) ? ?
O201 O -0.0189(4)  0.9363(3)  0.6194(4)  1.000 2 i ? d Uani  0.076(3) ? ?
O202 O  0.3769(3)  0.9218(3)  0.8523(3)  1.000 2 i ? d Uani  0.051(2) ? ?
O203 O  0.6549(4)  0.1612(3)  0.8147(3)  1.000 2 i ? d Uani  0.066(3) ? ?
O204 O  0.0294(4)  0.7087(3)  0.4793(4)  1.000 2 i ? d Uani  0.075(3) ? ?
O205 O  0.1168(4)  0.7752(3)  0.5234(3)  1.000 2 i ? d Uani  0.063(3) ? ?
O206 O  0.6918(3)  0.3399(3)  0.9272(3)  1.000 2 i ? d Uani  0.055(2) ? ?
O207 O  0.1039(4)  0.7025(3)  0.5393(3)  1.000 2 i ? d Uani  0.064(3) ? ?
O208 O  0.6772(4)  0.1913(3)  0.6596(3)  1.000 2 i ? d Uani  0.056(2) ? ?
O209 O  0.5886(3)  0.7522(3)  0.8710(3)  1.000 2 i ? d Uani  0.059(2) ? ?
O210 O  0.8297(3)  0.2730(3)  0.8644(3)  1.000 2 i ? d Uani  0.056(2) ? ?
O211 O  0.6703(4)  0.1242(4)  0.9019(4)  1.000 2 i ? d Uani  0.074(3) ? ?
O212 O  0.2878(4)  1.0633(3)  0.7064(3)  1.000 2 i ? d Uani  0.065(3) ? ?
O213 O  0.1055(4)  0.9412(3)  0.7225(3)  1.000 2 i ? d Uani  0.064(3) ? ?
O214 O  0.8821(4)  0.5070(4)  1.0005(4)  1.000 2 i ? d Uani  0.078(3) ? ?
O215 O  0.3861(4)  0.4462(3)  0.5399(4)  1.000 2 i ? d Uani  0.074(3) ? ?
O216 O  0.7990(3)  0.4985(3)  1.0402(3)  1.000 2 i ? d Uani  0.055(2) ? ?
O217 O  0.2901(5)  0.9910(4)  0.8768(3)  1.000 2 i ? d Uani  0.076(3) ? ?
O218 O  0.3547(4)  0.9686(3)  0.9202(4)  1.000 2 i ? d Uani  0.072(3) ? ?
O219 O  0.4306(4)  0.9595(3)  0.8017(4)  1.000 2 i ? d Uani  0.072(3) ? ?
O220 O  0.4113(3)  0.3743(2)  0.4998(3)  1.000 2 i ? d Uani  0.055(2) ? ?
O221 O  0.6947(5) -0.0019(3)  0.7347(3)  1.000 2 i ? d Uani  0.073(3) ? ?
O222 O  0.6667(4)  0.4829(4)  1.0837(4)  1.000 2 i ? d Uani  0.077(3) ? ?
O223 O  0.6791(5)  0.2597(4)  0.6426(4)  1.000 2 i ? d Uani  0.085(4) ? ?
O224 O  0.7854(3)  0.5685(3)  0.9940(3)  1.000 2 i ? d Uani  0.059(3) ? ?
O225 O  0.4998(4)  0.0781(3)  0.5782(3)  1.000 2 i ? d Uani  0.058(2) ? ?
O226 O  0.8268(3)  0.3595(3)  0.9038(3)  1.000 2 i ? d Uani  0.056(2) ? ?
O227 O  0.6348(4)  0.0124(3)  0.6765(3)  1.000 2 i ? d Uani  0.064(3) ? ?
O228 O  0.7994(4)  0.2195(3)  0.8024(3)  1.000 2 i ? d Uani  0.058(2) ? ?
O229 O  0.4088(4)  0.7918(3)  0.9911(3)  1.000 2 i ? d Uani  0.066(3) ? ?
O230 O  0.5611(4)  0.0595(3)  0.6912(4)  1.000 2 i ? d Uani  0.071(3) ? ?
O231 O  0.1295(4)  0.9657(3)  0.4900(3)  1.000 2 i ? d Uani  0.071(3) ? ?
O232 O  0.7037(5)  0.6860(4)  1.0943(4)  1.000 2 i ? d Uani  0.083(4) ? ?
O233 O  0.1341(4)  0.6578(2)  0.4780(3)  1.000 2 i ? d Uani  0.059(3) ? ?
O234 O  0.0509(4)  0.6380(3)  0.4602(4)  1.000 2 i ? d Uani  0.072(3) ? ?
O235 O  0.8142(4)  0.0075(3)  0.7309(3)  1.000 2 i ? d Uani  0.071(3) ? ?
O236 O  0.1714(5)  0.7172(3)  0.4785(3)  1.000 2 i ? d Uani  0.068(3) ? ?
O237 O  0.0743(5)  0.7230(4)  0.6326(4)  1.000 2 i ? d Uani  0.086(4) ? ?
O238 O  0.5380(4)  0.7357(3)  0.8315(3)  1.000 2 i ? d Uani  0.061(3) ? ?
O239 O  0.3170(4)  0.9867(3)  0.7106(3)  1.000 2 i ? d Uani  0.059(3) ? ?
O240 O  0.2379(4)  0.9626(3)  0.6127(3)  1.000 2 i ? d Uani  0.059(3) ? ?
O241 O  0.1801(4)  0.9009(3)  0.5259(3)  1.000 2 i ? d Uani  0.063(3) ? ?
O242 O  0.4786(5)  0.6900(5)  1.0955(3)  1.000 2 i ? d Uani  0.088(4) ? ?
O243 O  0.6894(4)  0.1743(4)  0.5747(3)  1.000 2 i ? d Uani  0.069(3) ? ?
O244 O  0.9519(4)  0.2416(4)  0.9374(3)  1.000 2 i ? d Uani  0.070(3) ? ?
O245 O  0.7471(4)  0.5613(4)  0.9282(3)  1.000 2 i ? d Uani  0.071(3) ? ?
O246 O  0.5726(4) -0.0131(3)  0.6813(4)  1.000 2 i ? d Uani  0.071(3) ? ?
O247 O  0.1877(5)  0.4966(4)  0.3817(4)  1.000 2 i ? d Uani  0.085(4) ? ?
O248 O  0.3413(4)  0.5184(3)  0.5339(3)  1.000 2 i ? d Uani  0.067(3) ? ?
O249 O  0.7503(4)  0.2895(3)  0.8187(3)  1.000 2 i ? d Uani  0.062(3) ? ?
O250 O  0.6048(4)  0.3317(4)  0.9248(3)  1.000 2 i ? d Uani  0.069(3) ? ?
O251 O  0.7436(4)  0.3188(3)  0.4864(3)  1.000 2 i ? d Uani  0.058(3) ? ?
O252 O  0.5471(4)  0.4132(3)  0.9515(4)  1.000 2 i ? d Uani  0.070(3) ? ?
O253 O  0.5348(5)  0.3421(4)  0.5440(4)  1.000 2 i ? d Uani  0.099(5) ? ?
O254 O  0.3848(3)  0.7627(3)  0.8429(3)  1.000 2 i ? d Uani  0.061(3) ? ?
O255 O  0.6644(4)  0.0375(3)  0.7882(3)  1.000 2 i ? d Uani  0.061(3) ? ?
O256 O  0.3105(4)  0.7587(3)  0.8544(3)  1.000 2 i ? d Uani  0.063(3) ? ?
O257 O  0.6153(3)  0.7594(3)  0.9889(3)  1.000 2 i ? d Uani  0.058(3) ? ?
O258 O  0.2422(3)  0.4580(3)  0.5691(3)  1.000 2 i ? d Uani  0.055(2) ? ?
O259 O  0.0538(4)  0.9413(4)  0.6146(3)  1.000 2 i ? d Uani  0.070(3) ? ?
O260 O  0.7994(4)  0.3468(3)  1.0938(3)  1.000 2 i ? d Uani  0.058(2) ? ?
O261 O  0.5791(4)  0.5378(4)  1.0053(4)  1.000 2 i ? d Uani  0.081(3) ? ?
O262 O  0.3052(4)  0.8462(4)  0.9240(3)  1.000 2 i ? d Uani  0.070(3) ? ?
O263 O  0.7017(5)  0.7744(4)  1.0089(4)  1.000 2 i ? d Uani  0.088(4) ? ?
O264 O  0.6992(3)  0.6982(3)  0.9722(3)  1.000 2 i ? d Uani  0.058(2) ? ?
O265 O  0.8474(4)  0.3184(4)  1.1500(3)  1.000 2 i ? d Uani  0.069(3) ? ?
O266 O  0.2856(4)  0.1913(4)  0.5071(4)  1.000 2 i ? d Uani  0.078(3) ? ?
O267 O  0.4716(3)  0.8899(3)  0.8578(3)  1.000 2 i ? d Uani  0.064(3) ? ?
O268 O  0.1939(5)  1.0349(3)  0.5883(3)  1.000 2 i ? d Uani  0.076(3) ? ?
O269 O  0.0929(4)  0.8061(4)  0.6951(3)  1.000 2 i ? d Uani  0.065(3) ? ?
O270 O  0.5791(4)  0.8257(4)  1.0417(3)  1.000 2 i ? d Uani  0.070(3) ? ?
O271 O  0.8803(3)  0.2966(3)  1.0905(3)  1.000 2 i ? d Uani  0.054(2) ? ?
O272 O  0.1258(4)  0.4808(3)  0.4374(4)  1.000 2 i ? d Uani  0.069(3) ? ?
O273 O  0.7106(5)  0.3214(3)  0.4254(3)  1.000 2 i ? d Uani  0.074(3) ? ?
O274 O  0.1101(4)  0.5106(3)  0.4980(3)  1.000 2 i ? d Uani  0.066(3) ? ?
O275 O  0.7992(4)  0.0047(3)  0.8429(3)  1.000 2 i ? d Uani  0.075(3) ? ?
O276 O  0.2896(4)  1.0240(3)  0.7655(3)  1.000 2 i ? d Uani  0.063(3) ? ?
O277 O  0.1195(4)  0.9546(3)  0.5565(3)  1.000 2 i ? d Uani  0.063(3) ? ?
O278 O  0.7146(5)  0.5158(4)  0.9043(4)  1.000 2 i ? d Uani  0.080(4) ? ?
O279 O  0.4150(5)  1.0337(4)  0.8125(4)  1.000 2 i ? d Uani  0.089(4) ? ?
O280 O  0.0992(5)  0.9135(3)  0.5132(3)  1.000 2 i ? d Uani  0.073(3) ? ?
O281 O  1.0057(3)  0.0833(4)  0.8843(4)  1.000 2 i ? d Uani  0.077(3) ? ?
O282 O  0.8780(4)  0.1703(3)  1.0962(3)  1.000 2 i ? d Uani  0.063(3) ? ?
O283 O  0.6933(6) -0.0391(4)  0.7940(4)  1.000 2 i ? d Uani  0.091(4) ? ?
O284 O  0.3045(5)  0.2712(4)  0.6117(4)  1.000 2 i ? d Uani  0.081(3) ? ?
O285 O  0.3180(4)  0.4283(3)  0.6011(3)  1.000 2 i ? d Uani  0.066(3) ? ?
O286 O  0.7505(4)  0.0558(3)  0.8861(3)  1.000 2 i ? d Uani  0.065(3) ? ?
O287 O  1.0272(3)  0.1990(4)  0.9679(4)  1.000 2 i ? d Uani  0.077(3) ? ?
O288 O  0.8650(4)  0.0642(4)  0.9441(3)  1.000 2 i ? d Uani  0.069(3) ? ?
O289 O  0.5721(4)  0.0367(3)  0.6292(3)  1.000 2 i ? d Uani  0.067(3) ? ?
O290 O  0.4969(3)  0.8567(3)  0.9297(3)  1.000 2 i ? d Uani  0.052(2) ? ?
O291 O  0.2120(4)  0.8704(3)  0.8466(3)  1.000 2 i ? d Uani  0.065(3) ? ?
O292 O  0.8235(3)  0.2156(4)  1.0475(3)  1.000 2 i ? d Uani  0.068(3) ? ?
O293 O  0.7090(4)  0.1808(4)  0.9724(4)  1.000 2 i ? d Uani  0.076(3) ? ?
O294 O  0.1906(4)  1.0134(3)  0.6545(3)  1.000 2 i ? d Uani  0.062(3) ? ?
O295 O  0.3870(4)  0.9155(4)  0.6848(3)  1.000 2 i ? d Uani  0.070(3) ? ?
O296 O  0.0315(4)  0.7774(3)  0.5621(4)  1.000 2 i ? d Uani  0.082(4) ? ?
O297 O  0.4982(4)  0.6518(4)  1.0359(3)  1.000 2 i ? d Uani  0.074(3) ? ?
O298 O  0.6788(4)  0.3527(3)  0.8494(3)  1.000 2 i ? d Uani  0.067(3) ? ?
O299 O  0.8863(5)  0.1050(4)  0.9862(3)  1.000 2 i ? d Uani  0.072(3) ? ?
O300 O  0.6396(4)  0.8344(4)  0.9806(4)  1.000 2 i ? d Uani  0.080(3) ? ?
O301 O  0.6398(4)  0.7650(4)  1.0703(4)  1.000 2 i ? d Uani  0.082(4) ? ?
O302 O  0.5298(5)  0.3028(3)  0.5987(3)  1.000 2 i ? d Uani  0.074(3) ? ?
O303 O  0.9321(4)  0.3783(4)  1.0533(4)  1.000 2 i ? d Uani  0.070(3) ? ?
O304 O  0.8368(4)  0.4528(4)  1.1177(3)  1.000 2 i ? d Uani  0.070(3) ? ?
O305 O -0.0214(3)  0.6711(3)  0.4924(4)  1.000 2 i ? d Uani  0.079(4) ? ?
O306 O  0.8648(4)  0.0197(4)  0.7885(4)  1.000 2 i ? d Uani  0.079(3) ? ?
O307 O  0.4688(4)  0.8780(3)  0.6765(3)  1.000 2 i ? d Uani  0.065(3) ? ?
O308 O  0.3542(4)  1.0082(3)  0.8195(4)  1.000 2 i ? d Uani  0.071(3) ? ?
O309 O  0.5064(5)  0.1290(4)  0.7315(4)  1.000 2 i ? d Uani  0.086(4) ? ?
O310 O  0.4145(4)  0.8589(4)  0.6429(4)  1.000 2 i ? d Uani  0.083(4) ? ?
O311 O  0.1507(6)  0.5709(4)  0.3834(4)  1.000 2 i ? d Uani  0.090(4) ? ?
O312 O  0.7512(5)  0.4869(3)  1.1127(3)  1.000 2 i ? d Uani  0.072(3) ? ?
O313 O  0.7686(5)  0.6958(4)  1.0347(4)  1.000 2 i ? d Uani  0.088(4) ? ?
O314 O  0.2755(4)  0.9958(3)  0.9423(3)  1.000 2 i ? d Uani  0.068(3) ? ?
O315 O  0.1617(6)  0.8048(3)  0.4553(4)  1.000 2 i ? d Uani  0.088(4) ? ?
O316 O  0.2757(4)  0.5041(3)  0.5926(3)  1.000 2 i ? d Uani  0.070(3) ? ?
O317 O  0.7623(4)  0.3554(3)  0.8695(3)  1.000 2 i ? d Uani  0.067(3) ? ?
O318 O  0.4190(4)  0.9838(3)  0.8640(3)  1.000 2 i ? d Uani  0.065(3) ? ?
O319 O  0.6714(4)  0.5897(4)  0.8983(3)  1.000 2 i ? d Uani  0.066(3) ? ?
O320 O  0.7552(4)  0.4208(4)  0.8909(4)  1.000 2 i ? d Uani  0.074(3) ? ?
O321 O  0.5593(4)  0.8899(3)  0.8843(4)  1.000 2 i ? d Uani  0.072(3) ? ?
O322 O  0.5843(5)  0.8335(4)  0.8260(4)  1.000 2 i ? d Uani  0.085(4) ? ?
O323 O  0.2505(5)  0.4591(5)  0.6365(4)  1.000 2 i ? d Uani  0.090(4) ? ?
O324 O  0.2196(4)  0.6658(3)  0.6371(3)  1.000 2 i ? d Uani  0.060(3) ? ?
O325 O  0.2921(5)  0.3809(3)  0.3378(3)  1.000 2 i ? d Uani  0.076(3) ? ?
O326 O  0.7840(5)  0.2812(4)  0.7597(4)  1.000 2 i ? d Uani  0.083(4) ? ?
O327 O  0.3066(4)  0.6660(3)  0.6516(3)  1.000 2 i ? d Uani  0.071(3) ? ?
O328 O  0.7119(3)  0.3552(3)  1.0634(3)  1.000 2 i ? d Uani  0.064(3) ? ?
O329 O  0.8056(5)  0.3926(5)  0.8413(3)  1.000 2 i ? d Uani  0.083(4) ? ?
O330 O  0.1690(4)  0.8091(3)  0.8095(4)  1.000 2 i ? d Uani  0.070(3) ? ?
O331 O  0.6616(5)  0.3371(4)  0.4791(4)  1.000 2 i ? d Uani  0.086(4) ? ?
O332 O  0.6484(4)  0.2416(3)  0.8328(3)  1.000 2 i ? d Uani  0.068(3) ? ?
O333 O  0.8451(4) -0.0078(4)  0.6696(4)  1.000 2 i ? d Uani  0.076(3) ? ?
O334 O  0.8970(4)  0.1627(3)  1.0305(3)  1.000 2 i ? d Uani  0.059(2) ? ?
O335 O  0.5742(5)  0.6089(4)  0.8857(4)  1.000 2 i ? d Uani  0.081(3) ? ?
O336 O  0.4751(5)  0.8924(4)  0.7536(3)  1.000 2 i ? d Uani  0.075(3) ? ?
O337 O  0.6643(5)  0.2443(3)  0.7057(3)  1.000 2 i ? d Uani  0.085(4) ? ?
O338 O  0.7236(4)  0.2566(4)  0.7725(4)  1.000 2 i ? d Uani  0.076(3) ? ?
O339 O  0.6171(4)  0.7083(4)  0.8176(4)  1.000 2 i ? d Uani  0.079(3) ? ?
O340 O  0.6855(5)  0.7835(4)  0.9404(4)  1.000 2 i ? d Uani  0.085(4) ? ?
O341 O  0.5596(5)  0.8045(4)  0.6913(4)  1.000 2 i ? d Uani  0.087(4) ? ?
O342 O  0.8555(6)  0.1674(5)  0.7401(5)  1.000 2 i ? d Uani  0.104(5) ? ?
O343 O  0.8816(5)  0.0832(4)  0.7768(4)  1.000 2 i ? d Uani  0.083(4) ? ?
O344 O  0.7972(5)  0.5293(4)  1.1174(3)  1.000 2 i ? d Uani  0.075(3) ? ?
O345 O  0.4071(5)  0.4923(5)  0.4965(4)  1.000 2 i ? d Uani  0.104(5) ? ?
O346 O  1.0059(4)  0.3383(4)  1.0242(4)  1.000 2 i ? d Uani  0.088(4) ? ?
O347 O  0.4239(6)  0.9171(4)  1.0363(4)  1.000 2 i ? d Uani  0.095(4) ? ?
O348 O  0.2368(4)  0.6025(3)  0.6060(3)  1.000 2 i ? d Uani  0.069(3) ? ?
O349 O  0.9440(4)  0.5068(4)  1.0410(5)  1.000 2 i ? d Uani  0.106(5) ? ?
O350 O  0.4982(4)  0.8803(4)  1.0097(3)  1.000 2 i ? d Uani  0.073(3) ? ?
O351 O  0.4944(5)  0.9454(4)  0.9101(4)  1.000 2 i ? d Uani  0.084(4) ? ?
O352 O  0.9021(5)  0.3976(5)  0.9120(4)  1.000 2 i ? d Uani  0.095(4) ? ?
O353 O  0.6019(5)  0.6042(5)  1.0802(4)  1.000 2 i ? d Uani  0.092(4) ? ?
O354 O  0.1833(5)  0.6175(4)  0.6584(4)  1.000 2 i ? d Uani  0.089(4) ? ?
O355 O  0.6600(5)  0.4703(5)  0.8954(4)  1.000 2 i ? d Uani  0.087(4) ? ?
O356 O  0.7540(5)  0.6128(4)  1.1076(4)  1.000 2 i ? d Uani  0.082(3) ? ?
O357 O  0.5411(5)  0.2423(4)  0.7138(3)  1.000 2 i ? d Uani  0.081(4) ? ?
O358 O  0.5778(5)  0.8065(4)  1.1082(4)  1.000 2 i ? d Uani  0.087(4) ? ?
O359 O  0.3835(5)  0.2986(5)  0.6825(3)  1.000 2 i ? d Uani  0.089(4) ? ?
O360 O  0.8494(5)  0.6713(5)  1.0188(5)  1.000 2 i ? d Uani  0.098(4) ? ?
O361 O  0.7919(5)  0.4845(4)  1.1713(4)  1.000 2 i ? d Uani  0.086(4) ? ?
O362 O  0.8643(4)  0.5373(4)  1.0620(4)  1.000 2 i ? d Uani  0.086(4) ? ?
O363 O  0.4314(5)  0.9296(4)  0.9693(3)  1.000 2 i ? d Uani  0.076(3) ? ?
O364 O  0.7389(5)  0.5602(5)  0.8620(3)  1.000 2 i ? d Uani  0.085(4) ? ?
O365 O  0.7937(5) -0.0167(4)  0.9079(4)  1.000 2 i ? d Uani  0.090(4) ? ?
O366 O  0.1384(4)  0.5005(4)  0.5752(3)  1.000 2 i ? d Uani  0.080(3) ? ?
O367 O  0.7190(4)  0.0213(3)  0.5570(4)  1.000 2 i ? d Uani  0.077(3) ? ?
O368 O  0.3269(5)  0.5511(3)  0.6055(4)  1.000 2 i ? d Uani  0.074(3) ? ?
O369 O  0.1064(5)  0.6532(4)  0.3974(4)  1.000 2 i ? d Uani  0.081(4) ? ?
O370 O  0.5252(5)  0.3180(3)  0.6742(4)  1.000 2 i ? d Uani  0.076(3) ? ?
O371 O  0.0228(5)  0.7859(4)  0.4940(4)  1.000 2 i ? d Uani  0.093(5) ? ?
O372 O  0.8981(5)  0.2143(5)  0.8130(4)  1.000 2 i ? d Uani  0.091(4) ? ?
O373 O  0.1918(7)  0.5442(4)  0.3278(4)  1.000 2 i ? d Uani  0.101(5) ? ?
O374 O  0.5037(5)  0.8555(4)  0.6004(4)  1.000 2 i ? d Uani  0.086(4) ? ?
O375 O  0.5594(5)  0.8992(4)  0.9517(4)  1.000 2 i ? d Uani  0.085(4) ? ?
O376 O  0.2082(5)  0.3870(5)  0.5816(4)  1.000 2 i ? d Uani  0.093(4) ? ?
O377 O  0.3629(4)  0.7247(4)  0.7340(3)  1.000 2 i ? d Uani  0.070(3) ? ?
O378 O  0.0862(5)  0.8544(3)  0.4715(4)  1.000 2 i ? d Uani  0.077(3) ? ?
O379 O -0.0436(5)  0.8195(4)  0.5335(5)  1.000 2 i ? d Uani  0.104(5) ? ?
O380 O  0.5173(5)  0.2276(5)  0.7754(4)  1.000 2 i ? d Uiso  0.093(4) ? ?
O381 O  0.5903(6)  0.1126(5)  0.8110(4)  1.000 2 i ? d Uani  0.097(4) ? ?
O382 O  0.9137(5)  0.2986(6)  0.8733(4)  1.000 2 i ? d Uani  0.104(5) ? ?
O383 O  0.4715(4)  0.7027(3)  0.8243(3)  1.000 2 i ? d Uani  0.071(3) ? ?
O384 O  0.2557(6)  0.7594(4)  0.4700(4)  1.000 2 i ? d Uani  0.091(4) ? ?
O385 O  0.0940(6)  0.7924(4)  0.4391(3)  1.000 2 i ? d Uani  0.088(4) ? ?
O386 O  0.7057(5)  0.6494(4)  1.1557(3)  1.000 2 i ? d Uani  0.081(3) ? ?
O387 O  0.7170(5)  0.8275(4)  0.9707(4)  1.000 2 i ? d Uani  0.094(4) ? ?
O388 O  0.0832(4)  0.7244(3)  0.4171(3)  1.000 2 i ? d Uani  0.063(3) ? ?
O389 O  0.0426(4)  1.0099(4)  0.7152(4)  1.000 2 i ? d Uani  0.081(4) ? ?
O390 O  0.8551(5)  0.0529(4)  1.0103(3)  1.000 2 i ? d Uani  0.084(4) ? ?
O391 O  0.1091(5)  0.7992(4)  0.7748(4)  1.000 2 i ? d Uani  0.089(4) ? ?
O392 O  0.7802(6)  0.6322(5)  0.9097(5)  1.000 2 i ? d Uani  0.105(5) ? ?
O393 O  0.4214(6)  0.9303(5)  0.6283(5)  1.000 2 i ? d Uani  0.126(7) ? ?
O394 O  0.4305(6)  0.7728(6)  0.6585(4)  1.000 2 i ? d Uani  0.108(5) ? ?
O395 O  0.4259(4)  0.0700(3)  0.5829(3)  1.000 2 i ? d Uani  0.066(3) ? ?
O396 O  0.5020(5)  0.3965(5)  1.0225(5)  1.000 2 i ? d Uani  0.100(5) ? ?
O397 O  0.3224(7)  0.5373(6)  0.4128(4)  1.000 2 i ? d Uani  0.111(6) ? ?
O398 O  0.6246(4)  0.2949(4)  0.7640(4)  1.000 2 i ? d Uani  0.076(3) ? ?
O399 O  0.8522(5)  0.5186(5)  0.9236(4)  1.000 2 i ? d Uani  0.092(4) ? ?
O400 O  0.0468(4)  0.5087(5)  0.4588(6)  1.000 2 i ? d Uani  0.132(8) ? ?
O401 O  0.0944(5)  0.6159(4)  0.5964(4)  1.000 2 i ? d Uani  0.093(4) ? ?
O402 O  0.4093(4)  0.4145(4)  0.6171(4)  1.000 2 i ? d Uani  0.080(3) ? ?
O403 O  0.4074(5)  0.1866(5)  0.6665(4)  1.000 2 i ? d Uani  0.097(5) ? ?
O404 O  0.6849(5)  0.7445(5)  0.8735(4)  1.000 2 i ? d Uani  0.099(4) ? ?
O405 O  0.6675(7)  0.4162(5)  1.1095(5)  1.000 2 i ? d Uani  0.115(6) ? ?
O406 O  0.9439(5)  0.0165(5)  0.7818(5)  1.000 2 i ? d Uani  0.102(5) ? ?
O407 O  0.2611(4)  0.7314(5)  0.8064(4)  1.000 2 i ? d Uani  0.084(4) ? ?
O408 O  0.6260(5)  0.4474(4)  1.0487(4)  1.000 2 i ? d Uani  0.090(4) ? ?
O409 O  0.5694(6)  0.7995(6)  0.7701(5)  1.000 2 i ? d Uani  0.108(5) ? ?
O410 O  0.5690(5)  0.9508(4)  0.9075(5)  1.000 2 i ? d Uani  0.112(6) ? ?
O411 O  0.1084(6)  0.8498(3)  0.4075(3)  1.000 2 i ? d Uani  0.097(5) ? ?
O412 O  0.7781(4)  0.1487(4)  0.6534(4)  1.000 2 i ? d Uani  0.080(3) ? ?
O413 O  0.0882(6)  0.8561(5)  0.8142(5)  1.000 2 i ? d Uani  0.107(5) ? ?
O414 O  0.5338(5)  0.7255(4)  0.6768(5)  1.000 2 i ? d Uani  0.098(4) ? ?
O415 O  0.2121(5)  0.7302(5)  0.8742(3)  1.000 2 i ? d Uani  0.090(4) ? ?
O416 O  0.5967(6)  0.4797(5)  1.1095(5)  1.000 2 i ? d Uani  0.115(6) ? ?
O417 O  0.4382(7)  0.1912(5)  0.7388(5)  1.000 2 i ? d Uani  0.120(6) ? ?
O418 O  0.1268(8)  0.7078(7)  0.7722(4)  1.000 2 i ? d Uani  0.132(7) ? ?
O419 O  0.1096(5)  0.7709(3)  0.8556(3)  1.000 2 i ? d Uani  0.074(3) ? ?
O420 O  0.4899(10)  0.1528(7)  0.7975(7)  1.000 2 i ? d Uani  0.163(9) ? ?
O421 O  0.1041(8)  0.7104(4)  0.3526(4)  1.000 2 i ? d Uani  0.118(7) ? ?
O422 O  0.2361(7)  0.6594(5)  0.7992(6)  1.000 2 i ? d Uani  0.132(7) ? ?
O423 O  0.4427(11)  0.1206(9)  0.7637(8)  1.000 2 i ? d Uiso  0.188(10) ? ?
O424 O  0.5467(9)  0.4170(7)  0.5607(6)  1.000 2 i ? d Uiso  0.151(7) ? ?
O425 O  0.1699(7)  0.6811(5)  0.4053(5)  1.000 2 i ? d Uiso  0.113(5) ? ?
O426 O  0.4607(6)  0.0775(5)  0.6765(5)  1.000 2 i ? d Uani  0.114(6) ? ?
O427 O  0.5386(10)  0.2705(8)  0.8396(8)  0.500 2 i ? d Uiso  0.084(7) ? ?
O428 O  0.5620(7)  0.3728(6)  0.4364(7)  0.500 2 i ? d Uani  0.066(6) A 1
O429 O  0.4335(13)  0.3198(11)  0.7414(10)  0.500 2 i ? d Uiso  0.117(10) ? ?
O430 O  0.4347(9)  0.2981(7)  0.8719(7)  0.500 2 i ? d Uiso  0.073(6) ? ?
O431 O  0.4647(9)  0.2203(8)  0.8347(7)  0.500 2 i ? d Uiso  0.077(6) ? ?
O432 O  0.4060(6) -0.0095(5)  0.7245(6)  1.000 2 i ? d Uani  0.118(6) ? ?
O433 O  0.5209(9)  0.3168(7)  0.7642(7)  0.500 2 i ? d Uiso  0.074(6) ? ?
O434 O  0.4540(9)  0.3620(8)  0.8190(7)  0.500 2 i ? d Uiso  0.076(6) ? ?
O435 O  0.4261(14)  0.0180(12)  0.6378(10)  1.000 2 i ? d Uiso  0.253(16) ? ?
O436 O  0.6506(9)  0.7800(8)  0.8000(7)  1.000 2 i ? d Uiso  0.160(8) B 2
O437 O  0.3667(15)  0.0903(13)  0.7156(10)  1.000 2 i ? d Uiso  0.257(16) ? ?
O438 O  0.5043(16) -0.0256(14)  0.6945(11)  1.000 2 i ? d Uiso  0.278(18) ? ?
O439 O  0.6883(9)  0.3062(8)  0.5631(7)  0.500 2 i ? d Uiso  0.078(6) C 1
O440 O  0.6024(12)  0.3271(10)  0.6038(5)  0.500 2 i ? d Uiso  0.106(9) A 2
O441 O  0.5555(12)  0.3847(10)  0.4701(9)  0.500 2 i ? d Uiso  0.099(8) ? ?
O442 O  0.4546(13)  0.0475(11)  0.7542(9)  1.000 2 i ? d Uiso  0.229(14) ? ?
O443 O  0.5840(5)  0.3923(4)  1.0419(4)  1.000 2 i ? d Uiso  0.079(3) ? ?
O444 O  0.4899(12)  0.4043(10)  0.4887(9)  0.500 2 i ? d Uiso  0.105(9) ? ?
O445 O  0.3015(3)  0.6574(3)  0.4228(3)  1.000 2 i ? d Uiso  0.051(2) ? ?
O446 O  0.6308(8)  0.4090(7)  0.5319(7)  0.500 2 i ? d Uiso  0.069(5) ? ?
O447 O  0.3839(19)  0.3364(16)  0.8025(14)  0.500 2 i ? d Uiso  0.170(17) ? ?
O448 O  0.6158(10)  0.8495(9)  0.7631(8)  1.000 2 i ? d Uiso  0.183(10) D 1
O449 O  0.4372(4)  0.4167(3)  0.4095(3)  1.000 2 i ? d Uiso  0.069(3) ? ?
O450 O  0.6183(4)  0.1735(4)  0.4389(3)  1.000 2 i ? d Uiso  0.073(3) ? ?
O451 O  0.2641(7)  0.6617(6)  0.4297(5)  1.000 2 i ? d Uiso  0.124(6) ? ?
O452 O  0.6122(16)  0.4170(14)  0.4858(12)  0.500 2 i ? d Uiso  0.142(14) ? ?
O453 O  0.6621(6)  0.3711(5)  0.5623(5)  0.500 2 i ? d Uiso  0.042(3) ? ?
O454 O  0.5648(10)  0.4467(8)  0.4708(8)  0.500 2 i ? d Uiso  0.086(7) ? ?


loop_
_atom_site_aniso_label
_atom_site_aniso_U_11
_atom_site_aniso_U_22
_atom_site_aniso_U_33
_atom_site_aniso_U_12
_atom_site_aniso_U_13
_atom_site_aniso_U_23
Ce1  0.0386(3)  0.0439(3)  0.0480(4) -0.0094(3)  0.0022(3) -0.0037(3)
Ce2  0.0404(4)  0.0457(3)  0.0471(4) -0.0092(3)  0.0013(3) -0.0051(3)
Ce3  0.0419(4)  0.0479(4)  0.0471(4) -0.0112(3)  0.0004(3) -0.0036(3)
Ce4  0.0378(3)  0.0449(3)  0.0521(5) -0.0099(3)  0.0036(3) -0.0040(3)
Ce5  0.0404(4)  0.0462(3)  0.0475(4) -0.0096(3)  0.0017(3) -0.0036(3)
Ce6  0.0390(3)  0.0465(3)  0.0470(4) -0.0086(3) -0.0007(3) -0.0043(3)
Ce7  0.0515(4)  0.0412(3)  0.0459(4) -0.0103(3)  0.0008(3) -0.0033(3)
Ce8  0.0415(4)  0.0470(3)  0.0511(5) -0.0132(3)  0.0024(3) -0.0050(3)
Ce9  0.0417(4)  0.0489(4)  0.0474(4) -0.0104(3)  0.0002(3) -0.0047(3)
Ce10  0.0464(4)  0.0445(3)  0.0457(4) -0.0105(3)  0.0011(3) -0.0037(3)
Ce11  0.0391(4)  0.0463(3)  0.0532(5) -0.0109(3)  0.0044(3) -0.0048(3)
Ce12  0.0389(4)  0.0447(3)  0.0560(5) -0.0097(3)  0.0036(3) -0.0042(3)
Ce13  0.0352(3)  0.0554(4)  0.0470(4) -0.0115(3)  0.0006(3)  0.0009(3)
Ce14  0.0486(4)  0.0465(4)  0.0523(5) -0.0138(3)  0.0056(3) -0.0046(3)
Ce15  0.0417(4)  0.0490(4)  0.0522(5) -0.0133(3)  0.0017(3) -0.0025(3)
Ce16  0.0414(4)  0.0537(4)  0.0491(5) -0.0093(3)  0.0003(3) -0.0021(3)
Ce17  0.0408(4)  0.0521(4)  0.0497(5) -0.0107(3)  0.0009(3) -0.0024(3)
Ce18  0.0452(4)  0.0415(3)  0.0591(5) -0.0089(3)  0.0004(4) -0.0046(3)
Ce19  0.0441(4)  0.0513(4)  0.0513(5) -0.0131(3)  0.0010(3) -0.0013(3)
Ce20  0.0486(4)  0.0425(3)  0.0511(5) -0.0076(3) -0.0038(3) -0.0039(3)
Ce21  0.0449(4)  0.0451(3)  0.0509(5) -0.0097(3) -0.0030(3) -0.0037(3)
Ce22  0.0412(4)  0.0528(4)  0.0474(4) -0.0115(3) -0.0013(3) -0.0020(3)
Ce23  0.0557(4)  0.0450(3)  0.0460(4) -0.0146(3)  0.0013(3) -0.0049(3)
Ce24  0.0365(3)  0.0562(4)  0.0526(5) -0.0154(3) -0.0004(3)  0.0013(3)
Ce25  0.0442(4)  0.0561(4)  0.0488(5) -0.0114(3)  0.0006(3) -0.0005(3)
Ce26  0.0444(4)  0.0549(4)  0.0492(5) -0.0119(3) -0.0010(3) -0.0051(3)
Ce27  0.0387(4)  0.0492(4)  0.0598(5) -0.0098(3)  0.0014(3) -0.0060(3)
Ce28  0.0409(4)  0.0564(4)  0.0469(5) -0.0107(3)  0.0004(3)  0.0002(3)
Ce29  0.0458(4)  0.0460(4)  0.0543(5) -0.0090(3)  0.0007(3) -0.0063(3)
Ce30  0.0427(4)  0.0477(4)  0.0535(5) -0.0111(3) -0.0018(3) -0.0040(3)
Ce31  0.0431(4)  0.0503(4)  0.0526(5) -0.0127(3) -0.0008(3) -0.0033(3)
Ce32  0.0355(3)  0.0631(4)  0.0519(5) -0.0135(3) -0.0020(3)  0.0036(4)
Ce33  0.0415(4)  0.0503(4)  0.0600(5) -0.0108(3)  0.0058(4) -0.0051(3)
Ce34  0.0402(4)  0.0628(4)  0.0487(5) -0.0107(3)  0.0012(3) -0.0016(4)
Ce35  0.0450(4)  0.0549(4)  0.0507(5) -0.0125(3)  0.0004(3) -0.0015(3)
Ce36  0.0380(4)  0.0568(4)  0.0592(5) -0.0127(3) -0.0009(3)  0.0006(4)
Ce37  0.0396(4)  0.0564(4)  0.0496(5) -0.0124(3) -0.0004(3) -0.0008(3)
Ce38  0.0459(4)  0.0460(4)  0.0547(5) -0.0104(3) -0.0004(3) -0.0071(3)
Ce39  0.0406(4)  0.0600(4)  0.0570(5) -0.0177(3) -0.0012(3)  0.0022(4)
Ce40  0.0476(4)  0.0518(4)  0.0549(5) -0.0139(3)  0.0003(4) -0.0035(3)
Ce41  0.0432(4)  0.0636(4)  0.0502(5) -0.0128(3) -0.0002(3) -0.0026(4)
Ce42  0.0424(4)  0.0568(4)  0.0601(5) -0.0180(3) -0.0023(4)  0.0014(4)
Ce43  0.0490(4)  0.0558(4)  0.0536(5) -0.0123(3) -0.0061(4) -0.0021(4)
Ce44  0.0484(4)  0.0506(4)  0.0548(5) -0.0096(3)  0.0016(4) -0.0029(3)
Ce45  0.0380(4)  0.0644(4)  0.0561(5) -0.0173(3)  0.0015(3)  0.0033(4)
Ce46  0.0606(5)  0.0430(4)  0.0576(5) -0.0131(3)  0.0001(4) -0.0053(3)
Ce47  0.0552(4)  0.0456(4)  0.0549(5) -0.0139(3) -0.0066(4) -0.0034(3)
Ce48  0.0556(4)  0.0447(4)  0.0595(5) -0.0172(3)  0.0055(4) -0.0076(3)
Ce49  0.0801(6)  0.0449(4)  0.0457(5) -0.0221(4)  0.0021(4) -0.0038(3)
Ce50  0.0390(4)  0.0657(4)  0.0531(5) -0.0156(3)  0.0020(3)  0.0010(4)
Ce51  0.0538(4)  0.0487(4)  0.0562(5) -0.0107(3) -0.0026(4) -0.0063(3)
Ce52  0.0434(4)  0.0632(4)  0.0572(5) -0.0175(3) -0.0043(4)  0.0017(4)
Ce53  0.0440(4)  0.0607(4)  0.0549(5) -0.0160(3) -0.0021(4) -0.0033(4)
Ce54  0.0446(4)  0.0568(4)  0.0593(5) -0.0166(3) -0.0046(4) -0.0010(4)
Ce55  0.0415(4)  0.0664(5)  0.0535(5) -0.0100(3)  0.0008(4) -0.0012(4)
Ce56  0.0711(5)  0.0469(4)  0.0559(5) -0.0198(4)  0.0100(4) -0.0068(4)
Ce57  0.0444(4)  0.0599(4)  0.0527(5) -0.0056(3) -0.0014(4)  0.0011(4)
Ce58  0.0416(4)  0.0629(4)  0.0653(6) -0.0211(3) -0.0025(4)  0.0053(4)
Ce59  0.0406(4)  0.0623(4)  0.0702(6) -0.0189(3) -0.0040(4)  0.0050(4)
Ce60  0.0492(4)  0.0572(4)  0.0571(5) -0.0083(3) -0.0009(4) -0.0008(4)
Ce61  0.0445(4)  0.0623(4)  0.0644(6) -0.0192(4) -0.0047(4)  0.0016(4)
Ce62  0.0469(4)  0.0655(5)  0.0652(6) -0.0225(4) -0.0012(4)  0.0043(4)
Ce63  0.0672(5)  0.0473(4)  0.0597(5) -0.0155(4) -0.0125(4) -0.0012(4)
Ce64  0.0472(4)  0.0690(5)  0.0664(6) -0.0240(4) -0.0097(4)  0.0035(4)
Ce65  0.1065(8)  0.0446(4)  0.0523(5) -0.0253(5)  0.0039(5) -0.0028(4)
Ce66  0.0577(5)  0.0601(4)  0.0614(6) -0.0195(4) -0.0046(4) -0.0069(4)
Ce67  0.0596(5)  0.0630(5)  0.0636(6) -0.0230(4) -0.0070(4) -0.0063(4)
Ce68  0.0906(7)  0.0480(4)  0.0615(6) -0.0226(4) -0.0236(5)  0.0020(4)
Ce69  0.0776(6)  0.0485(4)  0.0614(6) -0.0049(4) -0.0102(5) -0.0062(4)
Ce70  0.0570(5)  0.0720(5)  0.0765(7) -0.0253(4) -0.0097(5)  0.0040(5)
Ce72  0.0395(7)  0.0481(7)  0.0678(11) -0.0201(6)  0.0138(7) -0.0096(7)
Ce73  0.0583(11)  0.0790(11)  0.0739(13) -0.0291(10)  0.0114(10) -0.0128(10)
Ce74  0.0431(4)  0.0726(5)  0.0544(5) -0.0106(4)  0.0054(4) -0.0097(4)
Ce75  0.0626(5)  0.0698(5)  0.0543(5) -0.0299(4)  0.0006(4)  0.0007(4)
Ce77  0.0467(4)  0.0658(5)  0.0666(6) -0.0213(4)  0.0035(4) -0.0029(4)
Co1  0.104(3)  0.115(3)  0.116(3) -0.055(2)  0.013(2)  0.000(2)
S1  0.0465(17)  0.0484(15)  0.0461(19) -0.0059(13)  0.0051(14) -0.0044(14)
S2  0.0380(15)  0.0547(16)  0.0470(19) -0.0089(13)  0.0020(14) -0.0042(14)
S3  0.0375(15)  0.0595(17)  0.048(2) -0.0123(13)  0.0044(14) -0.0005(15)
S4  0.0421(16)  0.0486(15)  0.0449(19) -0.0090(13) -0.0001(14) -0.0028(13)
S5  0.0475(17)  0.0493(16)  0.054(2) -0.0143(14) -0.0002(15) -0.0019(14)
S6  0.0384(15)  0.0457(15)  0.055(2) -0.0108(12)  0.0062(14) -0.0052(14)
S7  0.0349(14)  0.0509(16)  0.054(2) -0.0106(12)  0.0016(14)  0.0015(14)
S8  0.0496(19)  0.0515(17)  0.074(3) -0.0156(15) -0.0004(17) -0.0114(17)
S9  0.0399(15)  0.0493(15)  0.052(2) -0.0103(13)  0.0065(14) -0.0052(14)
S10  0.0408(16)  0.0565(17)  0.058(2) -0.0069(14)  0.0026(15) -0.0132(16)
S11  0.0470(17)  0.0545(17)  0.052(2) -0.0146(14) -0.0019(15) -0.0037(15)
S12  0.0484(17)  0.0503(16)  0.049(2) -0.0172(14)  0.0038(15) -0.0048(14)
S13  0.0381(16)  0.072(2)  0.066(2) -0.0221(15) -0.0042(16)  0.0060(18)
S14  0.0417(16)  0.0564(17)  0.052(2) -0.0091(14) -0.0013(15)  0.0003(15)
S15  0.0449(17)  0.0614(18)  0.056(2) -0.0162(15)  0.0022(15) -0.0087(16)
S16  0.0393(15)  0.0576(17)  0.051(2) -0.0131(14)  0.0004(14) -0.0027(15)
S17  0.0431(17)  0.0579(18)  0.060(2) -0.0157(14)  0.0004(15) -0.0027(16)
S18  0.0445(16)  0.0472(15)  0.056(2) -0.0109(13)  0.0037(15) -0.0064(14)
S19  0.0480(19)  0.0586(19)  0.063(2) -0.0037(15) -0.0030(17) -0.0070(17)
S20  0.0533(19)  0.069(2)  0.048(2) -0.0192(17) -0.0012(16)  0.0048(16)
S21  0.0571(19)  0.0521(17)  0.050(2) -0.0168(15)  0.0046(16) -0.0001(15)
S22  0.0510(19)  0.0592(19)  0.068(3) -0.0090(16) -0.0118(18) -0.0145(18)
S23  0.062(2)  0.062(2)  0.062(2) -0.0144(17)  0.0020(19) -0.0173(18)
S24  0.0348(17)  0.087(3)  0.071(3) -0.0156(17) -0.0018(17) -0.007(2)
S25  0.0474(18)  0.0549(17)  0.055(2) -0.0109(14)  0.0052(16) -0.0100(15)
S26  0.063(2)  0.063(2)  0.068(3) -0.0265(18)  0.0141(19) -0.0133(18)
S27  0.0452(18)  0.0541(17)  0.066(2)  0.0001(14)  0.0006(17) -0.0075(17)
S28  0.0518(19)  0.0552(18)  0.072(3) -0.0198(15)  0.0040(18) -0.0112(17)
S29  0.0491(18)  0.0590(18)  0.058(2) -0.0169(15)  0.0016(16) -0.0036(16)
S30  0.073(2)  0.0545(18)  0.055(2) -0.0280(18)  0.0114(19) -0.0091(16)
S31  0.0476(18)  0.071(2)  0.058(2) -0.0222(16)  0.0031(16)  0.0010(17)
S32  0.0457(17)  0.0559(17)  0.052(2) -0.0144(14)  0.0055(15) -0.0092(15)
S33  0.0492(19)  0.069(2)  0.049(2) -0.0120(16) -0.0051(16)  0.0015(17)
S34  0.0467(18)  0.069(2)  0.053(2) -0.0192(16) -0.0019(16)  0.0059(17)
S35  0.053(2)  0.072(2)  0.076(3) -0.0258(18)  0.0053(19) -0.009(2)
S36  0.0528(19)  0.0535(17)  0.065(2) -0.0205(15) -0.0003(17)  0.0003(16)
S37  0.072(2)  0.0486(17)  0.057(2) -0.0171(17) -0.0105(19)  0.0003(16)
S38  0.0527(19)  0.0666(19)  0.054(2) -0.0276(16) -0.0036(16)  0.0009(16)
S39  0.0399(17)  0.0550(17)  0.070(3) -0.0011(14) -0.0071(16) -0.0169(17)
S40  0.067(2)  0.0557(18)  0.061(2) -0.0105(17)  0.0011(19) -0.0077(17)
S41  0.0397(17)  0.071(2)  0.076(3) -0.0209(16) -0.0055(17)  0.0075(19)
S42  0.0371(17)  0.080(2)  0.064(3) -0.0030(16) -0.0004(16) -0.010(2)
S43  0.067(2)  0.0501(17)  0.059(2) -0.0151(16) -0.0131(18)  0.0048(16)
S44  0.057(2)  0.0515(19)  0.101(4)  0.0007(16) -0.021(2) -0.019(2)
S45  0.075(3)  0.072(2)  0.060(3) -0.022(2) -0.008(2)  0.008(2)
S46  0.064(2)  0.068(2)  0.056(2) -0.0119(18) -0.0049(19)  0.0058(18)
S47  0.071(2)  0.0414(16)  0.088(3) -0.0145(16) -0.001(2) -0.0111(18)
S48  0.116(4)  0.052(2)  0.055(3) -0.014(2) -0.011(3) -0.0074(18)
S49  0.053(2)  0.078(2)  0.066(3) -0.0061(18)  0.0128(19) -0.004(2)
S50  0.077(3)  0.074(2)  0.063(3) -0.030(2) -0.007(2)  0.002(2)
S51  0.068(2)  0.073(2)  0.069(3) -0.017(2) -0.009(2) -0.020(2)
S52  0.073(3)  0.071(2)  0.068(3) -0.028(2) -0.011(2)  0.008(2)
S53  0.069(2)  0.064(2)  0.068(3) -0.0274(19) -0.001(2) -0.0001(19)
S54  0.064(2)  0.076(2)  0.094(3) -0.034(2) -0.016(2)  0.002(2)
S55  0.0427(19)  0.091(3)  0.079(3) -0.0067(19)  0.0014(19) -0.021(2)
S56  0.074(3)  0.070(2)  0.100(4) -0.037(2) -0.019(3)  0.008(2)
S57  0.060(2)  0.079(3)  0.115(4) -0.038(2) -0.027(3)  0.016(3)
S58  0.084(3)  0.082(3)  0.078(3) -0.034(2) -0.014(3) -0.005(2)
S59  0.046(2)  0.088(3)  0.111(4) -0.031(2) -0.014(2)  0.003(3)
S60  0.069(2)  0.0571(19)  0.074(3) -0.0247(18) -0.013(2)  0.0014(18)
S61  0.076(3)  0.086(3)  0.071(3) -0.037(2)  0.001(2) -0.012(2)
S62  0.074(3)  0.054(2)  0.121(4) -0.0138(19) -0.032(3) -0.004(2)
S63  0.141(5)  0.058(2)  0.065(3) -0.040(3) -0.027(3)  0.000(2)
S64  0.066(3)  0.089(3)  0.073(3) -0.027(2)  0.011(2) -0.001(2)
S65  0.076(3)  0.084(3)  0.096(4) -0.035(2)  0.016(3) -0.004(3)
S66  0.096(4)  0.123(4)  0.100(4) -0.056(4)  0.026(3) -0.031(4)
S67  0.124(5)  0.081(3)  0.094(4) -0.037(3) -0.007(4) -0.004(3)
S68  0.126(6)  0.146(6)  0.131(6) -0.084(5)  0.022(5) -0.022(5)
O1  0.058(6)  0.063(6)  0.064(7) -0.026(5)  0.009(5)  0.006(5)
O2  0.033(4)  0.035(4)  0.047(5) -0.001(3) -0.003(4) -0.017(4)
O3  0.031(4)  0.033(4)  0.063(6) -0.002(3) -0.019(4)  0.003(4)
O4  0.059(6)  0.050(5)  0.051(6) -0.025(4)  0.002(5) -0.009(4)
O5  0.042(5)  0.051(5)  0.071(7) -0.014(4)  0.014(5) -0.019(5)
O6  0.036(5)  0.074(6)  0.049(6) -0.027(4) -0.004(4) -0.002(5)
O7  0.040(5)  0.045(4)  0.047(5) -0.007(4) -0.009(4) -0.004(4)
O8  0.035(5)  0.063(5)  0.075(7) -0.016(4) -0.005(5) -0.004(5)
O9  0.036(5)  0.060(5)  0.067(7) -0.010(4)  0.011(5)  0.002(5)
O10  0.040(5)  0.040(4)  0.102(9) -0.008(4)  0.004(5) -0.016(5)
O11  0.031(4)  0.079(6)  0.056(6) -0.023(4) -0.011(4)  0.003(5)
O12  0.031(4)  0.049(4)  0.039(5) -0.006(3) -0.011(4) -0.008(4)
O13  0.050(5)  0.063(5)  0.052(6) -0.026(5)  0.005(4) -0.003(4)
O14  0.052(5)  0.049(5)  0.039(5) -0.011(4) -0.009(4) -0.002(4)
O15  0.041(5)  0.058(5)  0.049(6) -0.010(4) -0.002(4) -0.001(4)
O16  0.059(6)  0.053(5)  0.038(5) -0.027(4)  0.004(4) -0.010(4)
O17  0.052(6)  0.041(4)  0.068(7) -0.005(4)  0.019(5) -0.007(4)
O18  0.035(5)  0.057(5)  0.065(7) -0.012(4)  0.011(4) -0.001(5)
O19  0.039(5)  0.054(5)  0.052(6)  0.002(4)  0.012(4) -0.008(4)
O20  0.056(5)  0.038(4)  0.043(5) -0.006(4) -0.010(4)  0.007(4)
O21  0.046(5)  0.047(4)  0.048(5) -0.013(4)  0.004(4) -0.004(4)
O22  0.036(5)  0.069(6)  0.053(6) -0.021(4) -0.007(4)  0.006(5)
O23  0.039(5)  0.044(4)  0.051(6) -0.008(4)  0.002(4) -0.001(4)
O24  0.035(5)  0.057(5)  0.070(7) -0.005(4)  0.001(5) -0.014(5)
O25  0.055(6)  0.039(4)  0.059(6) -0.012(4)  0.007(5) -0.010(4)
O26  0.031(4)  0.073(6)  0.042(5) -0.005(4) -0.006(4) -0.002(5)
O27  0.027(4)  0.071(6)  0.051(6) -0.002(4) -0.001(4)  0.000(5)
O28  0.047(5)  0.057(5)  0.062(7) -0.016(4) -0.007(5) -0.001(5)
O29  0.029(4)  0.038(4)  0.043(5) -0.008(3)  0.012(3) -0.008(3)
O30  0.047(5)  0.029(4)  0.045(5) -0.001(3)  0.015(4) -0.003(3)
O31  0.027(4)  0.056(5)  0.061(6) -0.008(4)  0.009(4) -0.007(4)
O32  0.053(6)  0.045(4)  0.062(6) -0.013(4)  0.016(5) -0.004(4)
O33  0.035(4)  0.056(5)  0.049(6) -0.004(4)  0.014(4) -0.004(4)
O34  0.046(5)  0.043(4)  0.063(6) -0.006(4) -0.008(5) -0.011(4)
O35  0.040(5)  0.041(4)  0.047(5)  0.002(4) -0.007(4) -0.011(4)
O36  0.018(3)  0.039(4)  0.069(6)  0.001(3) -0.002(4)  0.006(4)
O37  0.044(5)  0.052(5)  0.057(6) -0.002(4)  0.002(5) -0.007(4)
O38  0.056(6)  0.054(5)  0.042(5) -0.019(4)  0.011(4) -0.008(4)
O39  0.075(7)  0.050(5)  0.057(6) -0.021(5) -0.015(5)  0.009(5)
O40  0.041(5)  0.064(5)  0.038(5) -0.004(4)  0.005(4)  0.000(4)
O41  0.061(6)  0.030(4)  0.051(6) -0.015(4)  0.006(4) -0.007(4)
O42  0.042(5)  0.046(4)  0.048(5) -0.008(4)  0.002(4) -0.011(4)
O43  0.032(4)  0.043(4)  0.066(7) -0.001(3) -0.005(4)  0.004(4)
O44  0.050(5)  0.042(4)  0.035(5) -0.008(4)  0.005(4) -0.002(4)
O45  0.043(5)  0.042(4)  0.039(5) -0.008(4) -0.021(4) -0.004(4)
O46  0.054(6)  0.058(5)  0.090(8) -0.021(5) -0.021(6) -0.006(5)
O47  0.062(6)  0.062(5)  0.053(6) -0.025(5)  0.008(5)  0.000(5)
O48  0.032(4)  0.058(5)  0.051(6) -0.015(4) -0.002(4)  0.001(4)
O49  0.069(6)  0.044(4)  0.056(6) -0.023(5)  0.021(5) -0.011(4)
O50  0.036(4)  0.054(5)  0.046(5) -0.005(4) -0.004(4) -0.003(4)
O51  0.074(7)  0.039(4)  0.047(6) -0.009(4)  0.009(5) -0.003(4)
O52  0.058(6)  0.051(5)  0.071(7) -0.013(5)  0.005(5) -0.012(5)
O53  0.041(5)  0.046(4)  0.038(5) -0.002(4) -0.004(4) -0.002(4)
O54  0.049(5)  0.046(4)  0.051(6) -0.007(4)  0.012(4) -0.001(4)
O55  0.029(4)  0.064(5)  0.048(6) -0.003(4)  0.006(4) -0.010(4)
O56  0.044(5)  0.056(5)  0.043(5) -0.014(4)  0.000(4)  0.001(4)
O57  0.048(5)  0.053(5)  0.046(6) -0.007(4)  0.008(4) -0.005(4)
O58  0.076(7)  0.050(5)  0.051(6)  0.006(5) -0.007(5) -0.005(5)
O59  0.050(6)  0.080(7)  0.053(6) -0.020(5) -0.003(5) -0.003(5)
O60  0.048(5)  0.043(4)  0.049(6) -0.013(4) -0.005(4)  0.003(4)
O61  0.066(6)  0.030(4)  0.073(7) -0.010(4)  0.006(5) -0.004(4)
O62  0.032(4)  0.067(5)  0.048(6) -0.020(4)  0.000(4)  0.001(4)
O63  0.048(5)  0.063(5)  0.048(6) -0.006(4) -0.008(5) -0.003(5)
O64  0.039(4)  0.060(5)  0.036(5) -0.023(4) -0.011(4)  0.004(4)
O65  0.039(5)  0.053(5)  0.049(6) -0.011(4) -0.005(4) -0.009(4)
O66  0.046(5)  0.032(4)  0.054(6) -0.003(3)  0.012(4)  0.005(4)
O67  0.051(5)  0.045(4)  0.036(5) -0.011(4) -0.001(4) -0.002(4)
O68  0.062(7)  0.052(5)  0.098(9) -0.022(5) -0.004(6) -0.008(6)
O69  0.048(5)  0.067(6)  0.056(6) -0.017(5)  0.002(5)  0.001(5)
O70  0.051(6)  0.052(5)  0.066(7) -0.012(4)  0.006(5) -0.009(5)
O71  0.048(6)  0.071(6)  0.086(8) -0.019(5)  0.011(6) -0.014(6)
O72  0.032(4)  0.050(4)  0.050(6) -0.011(4)  0.001(4) -0.003(4)
O73  0.054(5)  0.036(4)  0.057(6) -0.009(4)  0.005(5) -0.007(4)
O74  0.064(6)  0.053(5)  0.083(8) -0.033(5) -0.003(6) -0.001(5)
O75  0.049(6)  0.054(5)  0.092(9)  0.006(4)  0.026(6) -0.019(6)
O76  0.047(5)  0.052(5)  0.047(6) -0.016(4)  0.002(4) -0.009(4)
O77  0.053(6)  0.061(6)  0.089(8) -0.026(5) -0.015(6) -0.007(6)
O78  0.052(6)  0.064(6)  0.052(6) -0.016(5) -0.007(5) -0.001(5)
O79  0.060(6)  0.068(6)  0.060(7) -0.022(5)  0.001(5)  0.000(5)
O80  0.033(4)  0.050(5)  0.059(6) -0.001(4) -0.008(4)  0.004(4)
O81  0.035(4)  0.056(5)  0.046(5) -0.008(4) -0.002(4)  0.012(4)
O82  0.049(5)  0.058(5)  0.057(6) -0.023(4) -0.001(5) -0.002(4)
O83  0.033(4)  0.050(5)  0.060(6)  0.005(4) -0.008(4)  0.020(4)
O84  0.047(5)  0.054(5)  0.057(6) -0.015(4)  0.001(5) -0.008(4)
O85  0.079(7)  0.042(4)  0.057(6) -0.018(5)  0.020(5) -0.005(4)
O86  0.055(5)  0.031(4)  0.051(6) -0.009(4)  0.000(4) -0.005(4)
O87  0.077(8)  0.097(8)  0.073(8) -0.054(7) -0.014(6)  0.008(7)
O88  0.060(6)  0.043(5)  0.086(8) -0.017(4) -0.016(6) -0.009(5)
O89  0.069(6)  0.042(4)  0.049(6) -0.017(4) -0.013(5) -0.012(4)
O90  0.056(6)  0.069(6)  0.053(6) -0.018(5)  0.000(5) -0.021(5)
O91  0.059(6)  0.053(5)  0.050(6) -0.010(4) -0.001(5) -0.012(4)
O92  0.040(5)  0.049(5)  0.056(6) -0.008(4) -0.016(4)  0.016(4)
O93  0.041(5)  0.052(5)  0.064(7) -0.007(4)  0.006(5) -0.014(5)
O94  0.054(6)  0.081(7)  0.055(6) -0.029(5) -0.009(5)  0.002(5)
O95  0.040(5)  0.042(4)  0.074(7) -0.009(4) -0.004(5) -0.016(4)
O96  0.062(6)  0.037(4)  0.048(6) -0.007(4)  0.008(5) -0.006(4)
O97  0.051(5)  0.057(5)  0.058(6) -0.018(4) -0.009(5)  0.003(5)
O98  0.040(5)  0.075(6)  0.073(7) -0.027(5) -0.009(5) -0.012(5)
O99  0.047(5)  0.076(6)  0.049(6) -0.023(5)  0.009(5) -0.003(5)
O100  0.049(5)  0.054(5)  0.047(6) -0.018(4)  0.003(4) -0.001(4)
O101  0.030(4)  0.072(6)  0.047(6) -0.013(4)  0.002(4)  0.001(5)
O102  0.039(4)  0.048(4)  0.045(5) -0.015(4)  0.013(4) -0.014(4)
O103  0.038(5)  0.060(5)  0.059(6) -0.014(4) -0.017(4)  0.012(5)
O104  0.038(4)  0.054(5)  0.033(5) -0.007(4) -0.002(4)  0.002(4)
O105  0.038(5)  0.038(4)  0.058(6)  0.001(3)  0.009(4) -0.012(4)
O106  0.050(5)  0.038(4)  0.065(7) -0.010(4)  0.003(5) -0.005(4)
O107  0.053(6)  0.066(6)  0.055(7) -0.005(5)  0.001(5) -0.002(5)
O108  0.046(5)  0.066(6)  0.046(6) -0.015(4)  0.003(4)  0.008(4)
O109  0.059(7)  0.074(7)  0.081(8) -0.025(6) -0.013(6)  0.008(6)
O110  0.030(4)  0.047(5)  0.089(8)  0.003(4) -0.013(5) -0.015(5)
O111  0.044(5)  0.067(6)  0.062(7) -0.014(5)  0.018(5) -0.012(5)
O112  0.018(4)  0.048(4)  0.060(6)  0.005(3) -0.003(4)  0.003(4)
O113  0.029(4)  0.076(6)  0.078(7) -0.020(4)  0.007(5) -0.011(5)
O114  0.049(6)  0.086(7)  0.069(8)  0.003(5) -0.003(5) -0.038(6)
O115  0.056(6)  0.033(4)  0.111(9) -0.022(4)  0.015(6) -0.012(5)
O116  0.044(5)  0.051(5)  0.052(6) -0.011(4)  0.003(4)  0.007(4)
O117  0.044(6)  0.087(7)  0.066(7) -0.014(5) -0.002(5) -0.008(6)
O118  0.056(6)  0.078(6)  0.064(7) -0.040(5)  0.001(5) -0.010(5)
O119  0.067(6)  0.072(6)  0.026(5) -0.021(5)  0.010(4) -0.017(4)
O120  0.072(7)  0.071(6)  0.068(7) -0.032(6)  0.002(6) -0.004(6)
O121  0.049(5)  0.051(5)  0.054(6) -0.004(4)  0.004(5)  0.008(4)
O122  0.030(4)  0.077(6)  0.053(6) -0.022(4)  0.003(4)  0.000(5)
O123  0.058(6)  0.071(6)  0.054(7) -0.009(5)  0.004(5)  0.002(5)
O124  0.065(6)  0.049(5)  0.042(5) -0.010(4)  0.006(5) -0.018(4)
O125  0.040(5)  0.069(6)  0.054(6) -0.005(4)  0.014(4) -0.026(5)
O126  0.112(11)  0.062(6)  0.104(11) -0.039(7) -0.043(9)  0.013(7)
O127  0.043(5)  0.050(5)  0.076(7) -0.010(4) -0.005(5)  0.000(5)
O128  0.043(5)  0.065(5)  0.054(6) -0.028(4) -0.002(4)  0.010(5)
O129  0.046(5)  0.065(6)  0.054(6) -0.008(4)  0.007(5)  0.007(5)
O130  0.037(5)  0.048(4)  0.053(6) -0.004(4) -0.004(4) -0.008(4)
O131  0.067(7)  0.049(5)  0.075(8) -0.008(5) -0.015(6) -0.010(5)
O132  0.052(6)  0.058(5)  0.061(7)  0.001(5) -0.007(5) -0.001(5)
O133  0.035(5)  0.085(7)  0.093(9) -0.031(5) -0.019(5)  0.008(6)
O134  0.058(6)  0.051(5)  0.050(6) -0.006(4) -0.020(5)  0.000(4)
O135  0.073(7)  0.044(5)  0.090(8) -0.027(5)  0.007(6) -0.014(5)
O136  0.061(7)  0.067(6)  0.085(9) -0.025(5) -0.018(6)  0.014(6)
O137  0.086(9)  0.077(7)  0.071(8) -0.024(7) -0.010(7)  0.008(6)
O138  0.051(5)  0.066(5)  0.053(6) -0.035(5) -0.005(4)  0.006(5)
O139  0.032(4)  0.058(5)  0.045(5) -0.015(4) -0.002(4) -0.004(4)
O140  0.081(8)  0.074(7)  0.084(9) -0.039(6)  0.017(7) -0.026(6)
O141  0.052(6)  0.073(6)  0.042(6) -0.002(5) -0.004(5) -0.007(5)
O142  0.061(6)  0.057(5)  0.047(6) -0.005(5) -0.007(5) -0.005(5)
O143  0.078(8)  0.081(7)  0.066(8) -0.023(6)  0.019(6) -0.017(6)
O144  0.075(8)  0.051(6)  0.113(11) -0.007(5) -0.051(8) -0.004(6)
O145  0.047(5)  0.058(5)  0.062(7) -0.015(4)  0.009(5) -0.011(5)
O146  0.051(5)  0.038(4)  0.068(7) -0.001(4) -0.002(5) -0.007(4)
O147  0.092(9)  0.050(5)  0.057(7) -0.011(5)  0.007(6) -0.006(5)
O148  0.057(6)  0.051(5)  0.075(7) -0.020(5)  0.002(5)  0.011(5)
O149  0.052(6)  0.067(6)  0.054(6) -0.019(5) -0.018(5) -0.001(5)
O150  0.065(7)  0.073(6)  0.070(7) -0.031(6) -0.018(6) -0.003(6)
O151  0.067(6)  0.033(4)  0.054(6) -0.017(4)  0.007(5) -0.006(4)
O152  0.049(6)  0.070(6)  0.092(9) -0.008(5) -0.036(6) -0.015(6)
O153  0.042(5)  0.067(6)  0.066(7)  0.002(5) -0.004(5) -0.002(5)
O154  0.042(5)  0.058(5)  0.067(7) -0.020(4) -0.006(5)  0.003(5)
O155  0.036(5)  0.039(4)  0.078(7)  0.014(4) -0.016(5) -0.015(4)
O156  0.022(4)  0.071(6)  0.058(6) -0.015(4) -0.020(4)  0.009(5)
O157  0.043(5)  0.090(7)  0.050(6) -0.011(5)  0.012(5) -0.021(5)
O158  0.052(6)  0.090(8)  0.062(7) -0.015(6) -0.008(5) -0.008(6)
O159  0.029(5)  0.066(6)  0.095(9)  0.006(4) -0.006(5) -0.023(6)
O160  0.053(6)  0.058(5)  0.055(6) -0.019(5)  0.000(5) -0.012(5)
O161  0.082(8)  0.055(6)  0.090(9) -0.021(6) -0.014(7) -0.013(6)
O162  0.026(4)  0.070(6)  0.055(6) -0.007(4) -0.017(4)  0.010(5)
O163  0.062(6)  0.044(5)  0.058(6) -0.009(4)  0.006(5) -0.012(4)
O164  0.051(6)  0.040(4)  0.082(8) -0.001(4) -0.014(5) -0.009(5)
O165  0.040(5)  0.062(5)  0.056(6) -0.009(4) -0.002(4) -0.017(5)
O166  0.052(6)  0.061(6)  0.064(7) -0.013(5)  0.007(5)  0.000(5)
O167  0.043(5)  0.049(5)  0.090(8) -0.003(4) -0.017(5) -0.002(5)
O168  0.051(5)  0.046(5)  0.057(6) -0.008(4) -0.005(5) -0.002(4)
O169  0.067(7)  0.071(6)  0.064(7) -0.035(6)  0.004(6) -0.007(5)
O170  0.096(9)  0.054(5)  0.068(7) -0.034(6) -0.006(6)  0.006(5)
O171  0.044(5)  0.057(5)  0.102(9) -0.012(4) -0.027(6) -0.015(6)
O172  0.070(7)  0.044(5)  0.082(8) -0.016(5) -0.010(6) -0.021(5)
O173  0.041(5)  0.053(5)  0.082(8) -0.014(4) -0.003(5) -0.017(5)
O174  0.065(6)  0.070(6)  0.050(6) -0.033(5) -0.002(5)  0.010(5)
O175  0.056(6)  0.057(5)  0.060(7) -0.016(5)  0.012(5) -0.006(5)
O176  0.043(5)  0.055(5)  0.080(8)  0.003(4)  0.004(5) -0.024(5)
O177  0.140(14)  0.046(6)  0.079(9) -0.001(7)  0.025(9) -0.013(6)
O178  0.045(5)  0.049(4)  0.053(6) -0.021(4)  0.000(4) -0.001(4)
O179  0.036(5)  0.045(4)  0.080(7) -0.006(4) -0.010(5) -0.020(5)
O180  0.056(6)  0.070(6)  0.096(9) -0.032(5) -0.012(6)  0.008(6)
O182  0.063(7)  0.077(7)  0.091(9) -0.028(6) -0.016(7)  0.011(6)
O183  0.082(8)  0.072(6)  0.048(6) -0.017(6)  0.030(6) -0.003(5)
O184  0.034(5)  0.082(7)  0.071(7) -0.012(5)  0.002(5)  0.005(6)
O185  0.072(7)  0.045(5)  0.061(7) -0.021(5) -0.027(5)  0.010(4)
O186  0.039(5)  0.043(4)  0.068(7)  0.005(4)  0.006(5) -0.013(4)
O187  0.052(6)  0.049(5)  0.063(7) -0.003(4)  0.011(5) -0.022(5)
O188  0.077(9)  0.115(10)  0.099(11) -0.051(8) -0.013(8)  0.019(8)
O189  0.031(4)  0.061(5)  0.056(6)  0.001(4)  0.004(4) -0.015(5)
O190  0.073(7)  0.064(6)  0.058(7) -0.017(5)  0.003(6)  0.008(5)
O191  0.058(7)  0.065(6)  0.090(9) -0.005(5)  0.025(6) -0.001(6)
O192  0.051(6)  0.070(6)  0.062(7) -0.014(5)  0.010(5) -0.005(5)
O193  0.080(8)  0.091(8)  0.043(6) -0.035(7) -0.004(6) -0.004(6)
O194  0.050(5)  0.036(4)  0.068(7) -0.004(4) -0.005(5)  0.007(4)
O195  0.048(5)  0.048(5)  0.073(7) -0.008(4)  0.002(5) -0.002(5)
O196  0.031(4)  0.065(5)  0.047(6) -0.007(4) -0.007(4) -0.004(4)
O197  0.065(7)  0.065(6)  0.069(7) -0.020(5)  0.018(6) -0.030(5)
O198  0.052(5)  0.061(5)  0.064(7) -0.029(5)  0.015(5) -0.010(5)
O199  0.046(6)  0.115(9)  0.049(7)  0.000(6) -0.006(5) -0.026(6)
O200  0.075(8)  0.082(7)  0.084(9) -0.034(6)  0.023(7) -0.007(6)
O201  0.041(5)  0.065(6)  0.109(10) -0.006(5) -0.008(6) -0.015(6)
O202  0.051(5)  0.046(4)  0.050(6) -0.011(4) -0.006(4)  0.001(4)
O203  0.047(6)  0.071(6)  0.076(8) -0.018(5) -0.011(5) -0.002(6)
O204  0.072(7)  0.045(5)  0.103(10) -0.019(5) -0.006(7) -0.006(6)
O205  0.091(8)  0.043(5)  0.048(6) -0.019(5) -0.002(5) -0.006(4)
O206  0.043(5)  0.051(5)  0.060(6) -0.005(4)  0.000(5) -0.002(4)
O207  0.084(8)  0.031(4)  0.064(7) -0.007(4) -0.002(6) -0.012(4)
O208  0.061(6)  0.043(4)  0.057(6) -0.011(4)  0.002(5) -0.002(4)
O209  0.040(5)  0.073(6)  0.056(6) -0.014(5) -0.004(5)  0.002(5)
O210  0.047(5)  0.074(6)  0.044(6) -0.019(5) -0.006(4)  0.000(5)
O211  0.072(8)  0.069(6)  0.074(8) -0.019(6)  0.021(6) -0.007(6)
O212  0.077(7)  0.042(5)  0.075(8) -0.022(5) -0.002(6)  0.002(5)
O213  0.044(5)  0.054(5)  0.073(7)  0.002(4) -0.019(5)  0.008(5)
O214  0.058(7)  0.066(6)  0.101(10) -0.014(5) -0.009(7) -0.008(6)
O215  0.058(6)  0.053(5)  0.104(10) -0.012(5) -0.010(6) -0.011(6)
O216  0.033(4)  0.052(5)  0.069(7) -0.005(4)  0.012(4) -0.004(5)
O217  0.103(10)  0.069(6)  0.049(7) -0.025(7) -0.005(6) -0.013(5)
O218  0.040(5)  0.066(6)  0.096(9)  0.000(5) -0.020(6) -0.018(6)
O219  0.059(7)  0.056(6)  0.094(9) -0.016(5) -0.013(6)  0.002(6)
O220  0.054(5)  0.030(4)  0.074(7) -0.011(4) -0.009(5)  0.001(4)
O221  0.087(8)  0.051(5)  0.066(8) -0.011(5)  0.003(6)  0.008(5)
O222  0.061(7)  0.076(7)  0.098(10) -0.033(6)  0.019(7)  0.004(6)
O223  0.075(8)  0.069(7)  0.105(10) -0.026(6)  0.025(7)  0.025(7)
O224  0.044(5)  0.041(4)  0.084(8) -0.010(4) -0.003(5)  0.003(5)
O225  0.053(6)  0.059(5)  0.055(6) -0.017(5) -0.004(5)  0.007(5)
O226  0.037(5)  0.067(6)  0.052(6) -0.010(4)  0.001(4)  0.009(5)
O227  0.062(6)  0.047(5)  0.076(8) -0.013(5) -0.008(6) -0.006(5)
O228  0.054(6)  0.052(5)  0.052(6) -0.004(4) -0.008(5)  0.002(4)
O229  0.061(6)  0.072(6)  0.066(7) -0.029(5)  0.016(5)  0.004(5)
O230  0.083(8)  0.030(4)  0.090(9) -0.011(5) -0.002(6) -0.003(5)
O231  0.070(7)  0.063(6)  0.066(7) -0.015(5) -0.012(6)  0.022(5)
O232  0.087(9)  0.076(7)  0.093(10) -0.037(7) -0.006(7) -0.020(7)
O233  0.087(7)  0.025(4)  0.048(6) -0.003(4) -0.006(5)  0.007(4)
O234  0.056(6)  0.059(6)  0.103(10) -0.022(5)  0.014(6) -0.015(6)
O235  0.060(7)  0.057(6)  0.068(8)  0.007(5) -0.005(6) -0.001(5)
O236  0.108(9)  0.023(4)  0.063(7) -0.012(5) -0.008(6) -0.008(4)
O237  0.077(8)  0.076(7)  0.10(1) -0.023(6)  0.024(8) -0.016(7)
O238  0.053(6)  0.060(5)  0.064(7) -0.015(5) -0.006(5) -0.013(5)
O239  0.062(6)  0.032(4)  0.073(7) -0.002(4)  0.009(5) -0.018(4)
O240  0.085(7)  0.036(4)  0.048(6) -0.016(5) -0.001(5)  0.003(4)
O241  0.076(7)  0.027(4)  0.072(7) -0.006(4)  0.002(6)  0.011(4)
O242  0.075(8)  0.138(11)  0.057(7) -0.051(8) -0.022(6)  0.011(7)
O243  0.062(7)  0.074(6)  0.065(7) -0.019(5)  0.018(6) -0.007(6)
O244  0.045(6)  0.087(7)  0.063(7) -0.012(5) -0.006(5)  0.007(6)
O245  0.053(6)  0.090(7)  0.069(8) -0.027(6)  0.022(6) -0.013(6)
O246  0.061(6)  0.053(5)  0.098(9) -0.025(5) -0.019(6)  0.015(6)
O247  0.10(1)  0.068(7)  0.077(9) -0.021(7) -0.015(7) -0.007(6)
O248  0.058(6)  0.057(5)  0.074(8) -0.006(5)  0.003(6) -0.020(5)
O249  0.076(7)  0.056(5)  0.037(5) -0.007(5)  0.004(5) -0.007(4)
O250  0.053(6)  0.087(7)  0.066(7) -0.023(6)  0.007(5) -0.013(6)
O251  0.074(7)  0.056(5)  0.057(6) -0.036(5)  0.019(5) -0.020(5)
O252  0.055(6)  0.060(6)  0.088(9) -0.016(5) -0.001(6) -0.001(6)
O253  0.121(11)  0.117(10)  0.115(11) -0.102(10)  0.076(9) -0.047(8)
O254  0.044(5)  0.052(5)  0.075(7) -0.008(4) -0.022(5)  0.008(5)
O255  0.063(6)  0.048(5)  0.064(7) -0.013(5) -0.003(5)  0.003(5)
O256  0.063(6)  0.062(6)  0.064(7) -0.026(5)  0.008(5)  0.000(5)
O257  0.017(4)  0.089(7)  0.066(7) -0.016(4) -0.010(4) -0.013(5)
O258  0.051(5)  0.051(5)  0.059(6) -0.013(4)  0.007(5) -0.014(4)
O259  0.062(7)  0.069(6)  0.070(8) -0.014(5) -0.014(6) -0.016(6)
O260  0.060(6)  0.066(6)  0.045(6) -0.022(5) -0.014(5)  0.006(5)
O261  0.055(7)  0.102(9)  0.085(9) -0.031(6)  0.007(6)  0.005(7)
O262  0.063(7)  0.078(7)  0.066(7) -0.027(6)  0.014(6)  0.005(6)
O263  0.075(8)  0.101(9)  0.106(10) -0.060(7) -0.034(7)  0.029(8)
O264  0.048(5)  0.060(5)  0.064(7) -0.019(5)  0.007(5) -0.004(5)
O265  0.080(8)  0.081(7)  0.051(7) -0.038(6) -0.003(6) -0.001(5)
O266  0.064(7)  0.067(6)  0.117(11) -0.037(6)  0.013(7) -0.020(7)
O267  0.035(5)  0.066(6)  0.079(8) -0.008(4) -0.016(5)  0.009(5)
O268  0.090(9)  0.059(6)  0.069(8) -0.018(6) -0.011(7)  0.009(5)
O269  0.048(6)  0.086(7)  0.057(7) -0.022(5)  0.008(5) -0.009(5)
O270  0.056(6)  0.075(7)  0.070(8) -0.015(5) -0.031(6) -0.002(6)
O271  0.047(5)  0.052(5)  0.060(6) -0.015(4)  0.002(5) -0.005(4)
O272  0.054(6)  0.054(5)  0.087(8) -0.008(5) -0.013(6) -0.015(5)
O273  0.083(8)  0.061(6)  0.055(7) -0.005(6)  0.019(6) -0.002(5)
O274  0.045(5)  0.059(5)  0.087(8) -0.006(4) -0.014(5) -0.026(5)
O275  0.074(8)  0.055(6)  0.070(8)  0.004(5) -0.009(6)  0.004(5)
O276  0.075(7)  0.055(5)  0.058(7) -0.024(5) -0.006(6)  0.004(5)
O277  0.063(6)  0.048(5)  0.061(7) -0.007(4) -0.030(5)  0.011(5)
O278  0.082(8)  0.070(7)  0.081(9) -0.025(6) -0.034(7)  0.019(6)
O279  0.104(10)  0.086(8)  0.094(10) -0.057(8) -0.014(8)  0.000(7)
O280  0.113(10)  0.057(6)  0.049(6) -0.035(6) -0.034(6)  0.009(5)
O281  0.031(5)  0.074(7)  0.097(9)  0.012(5)  0.010(5) -0.002(6)
O282  0.046(5)  0.060(5)  0.069(7) -0.010(4) -0.001(5)  0.018(5)
O283  0.117(11)  0.057(6)  0.098(10) -0.038(7) -0.013(9)  0.020(6)
O284  0.071(8)  0.081(7)  0.092(10) -0.028(6)  0.018(7) -0.020(7)
O285  0.052(6)  0.057(5)  0.069(7)  0.002(5) -0.011(5) -0.013(5)
O286  0.069(7)  0.066(6)  0.050(6) -0.018(5)  0.006(5)  0.002(5)
O287  0.018(4)  0.091(7)  0.102(10)  0.002(5)  0.003(5) -0.004(7)
O288  0.069(7)  0.078(7)  0.052(7) -0.022(6)  0.003(6)  0.007(5)
O289  0.069(7)  0.056(5)  0.076(8) -0.027(5) -0.008(6)  0.003(5)
O290  0.054(5)  0.056(5)  0.048(6) -0.022(4)  0.001(4) -0.006(4)
O291  0.052(6)  0.063(6)  0.070(7) -0.012(5)  0.013(5) -0.005(5)
O292  0.039(5)  0.092(7)  0.063(7) -0.022(5) -0.013(5)  0.029(6)
O293  0.072(8)  0.085(7)  0.080(8) -0.041(7)  0.006(6) -0.002(6)
O294  0.064(6)  0.051(5)  0.063(7) -0.014(5)  0.008(5) -0.005(5)
O295  0.054(6)  0.077(7)  0.071(8) -0.019(5)  0.026(6) -0.001(6)
O296  0.067(7)  0.048(5)  0.112(11) -0.002(5) -0.012(7)  0.003(6)
O297  0.077(8)  0.078(7)  0.065(8) -0.030(6)  0.001(6)  0.003(6)
O298  0.055(6)  0.063(6)  0.073(8) -0.013(5) -0.017(6)  0.007(5)
O299  0.090(9)  0.085(7)  0.049(6) -0.042(7) -0.018(6)  0.004(5)
O300  0.049(6)  0.077(7)  0.107(10) -0.017(5) -0.018(6) -0.002(7)
O301  0.041(6)  0.092(8)  0.103(10) -0.018(6) -0.030(6)  0.011(7)
O302  0.088(9)  0.050(5)  0.069(8) -0.009(5) -0.016(6) -0.006(5)
O303  0.040(5)  0.074(6)  0.091(9) -0.017(5) -0.012(5)  0.003(6)
O304  0.073(7)  0.073(7)  0.061(7) -0.023(6)  0.003(6) -0.016(6)
O305  0.029(5)  0.055(5)  0.143(12) -0.007(4) -0.010(6)  0.005(6)
O306  0.054(7)  0.090(8)  0.074(8) -0.003(6) -0.006(6) -0.014(7)
O307  0.066(7)  0.040(4)  0.074(8) -0.005(4)  0.015(6) -0.008(5)
O308  0.050(6)  0.048(5)  0.111(10) -0.012(4) -0.008(6) -0.015(6)
O309  0.10(1)  0.072(7)  0.087(9) -0.032(7)  0.039(8) -0.018(7)
O310  0.037(5)  0.110(9)  0.077(8)  0.004(6)  0.002(5) -0.039(7)
O311  0.121(12)  0.067(7)  0.061(8) -0.009(7) -0.018(8) -0.015(6)
O312  0.082(8)  0.066(6)  0.057(7) -0.016(6) -0.014(6) -0.007(5)
O313  0.083(9)  0.069(7)  0.114(11) -0.035(7) -0.034(8)  0.020(7)
O314  0.068(7)  0.059(6)  0.070(7) -0.014(5)  0.012(6) -0.027(5)
O315  0.138(13)  0.048(6)  0.062(8) -0.021(7) -0.011(8)  0.009(5)
O316  0.076(7)  0.051(5)  0.083(8) -0.029(5) -0.032(6)  0.013(5)
O317  0.061(6)  0.057(5)  0.083(8) -0.025(5) -0.015(6)  0.005(5)
O318  0.056(6)  0.053(5)  0.081(8) -0.016(5) -0.027(6)  0.005(5)
O319  0.048(6)  0.085(7)  0.050(6) -0.010(5) -0.004(5) -0.006(5)
O320  0.062(7)  0.066(6)  0.076(8) -0.006(5) -0.014(6)  0.003(6)
O321  0.053(6)  0.050(5)  0.119(10) -0.021(5)  0.001(6) -0.021(6)
O322  0.097(10)  0.103(9)  0.058(8) -0.042(8)  0.032(7) -0.012(7)
O323  0.080(9)  0.137(12)  0.071(8) -0.062(9)  0.015(7) -0.002(8)
O324  0.084(7)  0.029(4)  0.061(7) -0.016(4) -0.002(6)  0.003(4)
O325  0.103(10)  0.063(6)  0.046(6) -0.015(6) -0.008(6) -0.005(5)
O326  0.092(9)  0.071(7)  0.076(9) -0.027(7)  0.011(7)  0.022(6)
O327  0.068(7)  0.054(5)  0.075(8) -0.006(5)  0.005(6)  0.001(5)
O328  0.042(5)  0.081(7)  0.081(8) -0.036(5)  0.007(5) -0.012(6)
O329  0.089(9)  0.116(10)  0.050(7) -0.052(8) -0.005(6)  0.012(7)
O330  0.056(6)  0.039(5)  0.103(9) -0.008(4) -0.011(6) -0.001(5)
O331  0.106(10)  0.092(8)  0.091(9) -0.073(8)  0.015(8) -0.006(7)
O332  0.062(7)  0.069(6)  0.054(7) -0.004(5) -0.010(5) -0.012(5)
O333  0.059(7)  0.065(6)  0.087(9) -0.001(5)  0.010(6) -0.021(6)
O334  0.064(6)  0.050(5)  0.044(6) -0.001(4)  0.008(5)  0.003(4)
O335  0.077(8)  0.092(8)  0.077(9) -0.038(7) -0.008(7) -0.002(7)
O336  0.077(8)  0.077(7)  0.064(8) -0.023(6)  0.014(6) -0.012(6)
O337  0.116(11)  0.044(5)  0.064(8)  0.002(6) -0.043(7)  0.001(5)
O338  0.044(6)  0.076(7)  0.109(10) -0.029(5) -0.040(6)  0.012(6)
O339  0.069(8)  0.080(7)  0.083(9) -0.024(6)  0.029(7) -0.010(6)
O340  0.075(8)  0.083(8)  0.105(10) -0.037(7) -0.006(7) -0.013(7)
O341  0.071(8)  0.091(8)  0.089(10) -0.019(7) -0.001(7) -0.026(7)
O342  0.091(11)  0.123(12)  0.108(12) -0.053(10)  0.008(9) -0.004(9)
O343  0.070(8)  0.071(7)  0.083(9)  0.003(6)  0.001(7) -0.014(6)
O344  0.089(9)  0.093(8)  0.046(6) -0.039(7) -0.024(6)  0.010(6)
O345  0.102(10)  0.130(11)  0.129(12) -0.092(10)  0.067(9) -0.061(10)
O346  0.031(5)  0.102(9)  0.121(11) -0.019(6) -0.032(6)  0.021(8)
O347  0.122(12)  0.091(9)  0.074(9) -0.038(9) -0.001(8) -0.037(7)
O348  0.076(7)  0.056(5)  0.051(6)  0.007(5) -0.006(5) -0.027(5)
O349  0.034(6)  0.089(8)  0.195(17) -0.029(6)  0.018(8)  0.000(9)
O350  0.053(6)  0.074(6)  0.077(8) -0.006(5) -0.035(6) -0.010(6)
O351  0.089(9)  0.071(7)  0.090(9) -0.032(7) -0.031(8)  0.004(6)
O352  0.068(8)  0.156(13)  0.068(8) -0.058(9)  0.011(7)  0.030(8)
O353  0.068(8)  0.151(13)  0.060(8) -0.046(9)  0.009(6) -0.004(8)
O354  0.088(9)  0.103(9)  0.080(9) -0.047(8)  0.002(7)  0.023(7)
O355  0.071(8)  0.115(10)  0.083(9) -0.049(8) -0.023(7)  0.011(8)
O356  0.076(8)  0.078(7)  0.078(9) -0.016(6) -0.020(7) -0.006(6)
O357  0.126(12)  0.072(7)  0.046(7) -0.038(7)  0.007(7) -0.010(5)
O358  0.108(11)  0.088(8)  0.072(8) -0.041(8)  0.003(8) -0.022(7)
O359  0.095(10)  0.134(11)  0.053(7) -0.056(9)  0.031(7) -0.030(7)
O360  0.072(8)  0.111(10)  0.122(12) -0.054(8) -0.015(8)  0.015(9)
O361  0.090(9)  0.105(9)  0.059(8) -0.035(8) -0.022(7)  0.013(7)
O362  0.032(5)  0.083(7)  0.135(12) -0.012(5) -0.019(6) -0.008(8)
O363  0.086(8)  0.075(7)  0.064(7) -0.023(6) -0.020(6) -0.022(6)
O364  0.089(9)  0.12(1)  0.049(7) -0.047(8)  0.023(7) -0.001(7)
O365  0.084(9)  0.076(7)  0.104(11) -0.031(7) -0.022(8)  0.026(7)
O366  0.066(7)  0.113(9)  0.063(8) -0.039(7)  0.014(6) -0.003(7)
O367  0.072(8)  0.059(6)  0.079(8) -0.001(5)  0.033(6) -0.021(6)
O368  0.082(8)  0.057(6)  0.080(8) -0.026(6) -0.015(7) -0.003(6)
O369  0.097(9)  0.060(6)  0.083(9) -0.026(6) -0.025(7) -0.011(6)
O370  0.091(9)  0.051(5)  0.089(9) -0.026(6)  0.023(7) -0.034(6)
O371  0.073(8)  0.059(6)  0.129(12)  0.001(6) -0.054(8) -0.030(7)
O372  0.068(8)  0.107(9)  0.089(10) -0.032(7)  0.016(7)  0.022(8)
O373  0.164(16)  0.065(7)  0.063(8) -0.031(9) -0.007(9) -0.017(6)
O374  0.098(10)  0.069(7)  0.069(8) -0.008(7)  0.014(7) -0.005(6)
O375  0.086(9)  0.075(7)  0.097(10) -0.034(7) -0.019(8) -0.004(7)
O376  0.084(9)  0.117(10)  0.09(1) -0.053(9)  0.020(8) -0.005(8)
O377  0.068(7)  0.073(6)  0.052(7) -0.011(6)  0.008(5) -0.004(5)
O378  0.085(8)  0.056(6)  0.077(8) -0.016(6) -0.038(7)  0.019(6)
O379  0.056(7)  0.072(7)  0.168(16) -0.011(6) -0.034(9)  0.000(9)
O381  0.098(11)  0.091(9)  0.100(11) -0.035(8)  0.020(9) -0.010(8)
O382  0.069(9)  0.169(15)  0.070(9) -0.047(9)  0.006(7)  0.023(9)
O383  0.086(8)  0.039(5)  0.076(8) -0.011(5)  0.004(6) -0.016(5)
O384  0.122(12)  0.066(7)  0.078(9) -0.030(7)  0.032(8) -0.002(6)
O385  0.134(12)  0.059(6)  0.066(8) -0.036(7) -0.049(8)  0.019(6)
O386  0.097(10)  0.107(9)  0.043(6) -0.043(8) -0.003(6) -0.009(6)
O387  0.10(1)  0.077(8)  0.114(12) -0.046(8) -0.006(9)  0.005(8)
O388  0.061(6)  0.041(4)  0.062(7)  0.009(4) -0.024(5) -0.001(4)
O389  0.041(6)  0.077(7)  0.116(11) -0.008(5)  0.007(6) -0.038(7)
O390  0.098(10)  0.086(8)  0.056(7) -0.022(7) -0.017(7)  0.005(6)
O391  0.092(10)  0.087(8)  0.093(10) -0.041(8) -0.015(8)  0.000(7)
O392  0.107(12)  0.128(12)  0.112(12) -0.081(11)  0.028(9) -0.014(10)
O393  0.102(12)  0.113(11)  0.095(11)  0.024(9)  0.058(10)  0.045(9)
O394  0.128(13)  0.157(14)  0.08(1) -0.095(12)  0.039(9) -0.04(1)
O395  0.048(6)  0.079(7)  0.078(8) -0.035(5) -0.021(5)  0.019(6)
O396  0.062(8)  0.103(10)  0.143(14) -0.040(7)  0.030(8) -0.020(9)
O397  0.141(15)  0.143(13)  0.090(11) -0.094(12)  0.042(10) -0.038(10)
O398  0.065(7)  0.074(7)  0.075(8) -0.012(6) -0.010(6) -0.009(6)
O399  0.082(9)  0.115(10)  0.097(10) -0.057(8)  0.023(8) -0.012(8)
O400  0.038(6)  0.095(9)  0.25(2)  0.008(6) -0.029(9) -0.092(12)
O401  0.092(10)  0.092(9)  0.085(10) -0.029(8)  0.014(8)  0.018(7)
O402  0.056(7)  0.076(7)  0.111(10) -0.026(6) -0.012(7) -0.020(7)
O403  0.093(10)  0.126(11)  0.086(10) -0.059(9)  0.052(8) -0.021(8)
O404  0.084(10)  0.127(11)  0.093(10) -0.047(9)  0.038(8) -0.019(9)
O405  0.143(16)  0.109(11)  0.113(13) -0.072(11) -0.010(11)  0.003(10)
O406  0.057(8)  0.117(11)  0.107(12) -0.002(7)  0.003(8) -0.032(9)
O407  0.051(6)  0.126(10)  0.068(8) -0.031(7) -0.010(6)  0.020(7)
O408  0.064(8)  0.100(9)  0.106(11) -0.032(7)  0.023(7) -0.007(8)
O409  0.079(10)  0.128(12)  0.103(12) -0.022(9)  0.010(9) -0.02(1)
O410  0.098(10)  0.076(8)  0.186(17) -0.059(8) -0.028(11) -0.016(9)
O411  0.170(15)  0.052(6)  0.049(7) -0.026(8) -0.034(8)  0.013(5)
O412  0.054(7)  0.081(7)  0.093(10) -0.013(6)  0.007(6) -0.004(7)
O413  0.114(12)  0.103(10)  0.108(12) -0.039(9)  0.058(10) -0.045(9)
O414  0.078(9)  0.089(9)  0.107(12) -0.009(7)  0.027(8) -0.010(8)
O415  0.102(10)  0.138(11)  0.060(8) -0.081(10) -0.011(7)  0.006(8)
O416  0.079(10)  0.107(11)  0.159(16) -0.039(9)  0.029(10)  0.001(10)
O417  0.126(15)  0.083(9)  0.118(14) -0.004(9)  0.036(11) -0.010(9)
O418  0.181(19)  0.199(18)  0.089(11) -0.153(17) -0.003(11) -0.010(11)
O419  0.080(8)  0.060(6)  0.068(8) -0.011(6)  0.015(6) -0.003(5)
O420  0.23(3)  0.121(14)  0.17(2) -0.089(17)  0.016(18) -0.056(14)
O421  0.24(2)  0.052(6)  0.055(8) -0.044(9)  0.016(10) -0.003(6)
O422  0.120(14)  0.080(9)  0.178(19) -0.021(9)  0.059(13) -0.007(10)
O426  0.103(12)  0.130(12)  0.130(14) -0.076(11) -0.016(10)  0.035(10)
O428  0.046(11)  0.042(9)  0.085(16)  0.010(8) -0.024(11) -0.007(10)
O432  0.092(11)  0.097(10)  0.177(17) -0.056(9) -0.001(11)  0.022(10)

loop_
_geom_bond_atom_site_label_1
_geom_bond_atom_site_label_2
_geom_bond_site_symmetry_1
_geom_bond_site_symmetry_2
_geom_bond_distance
_geom_bond_publ_flag
Ce1 Ce8 . .  3.6791(10) no
Ce1 Ce15 . .  3.6504(10) no
Ce1 Ce30 . .  3.8309(11) no
Ce1 Ce40 . .  3.6994(10) no
Ce1 O5 . .  2.404(9) no
Ce1 O34 . .  2.493(9) no
Ce1 O35 . .  2.227(8) no
Ce1 O36 . .  2.253(8) no
Ce1 O64 . .  2.443(8) no
Ce1 O67 . .  2.209(9) no
Ce1 O72 . .  2.345(8) no
Ce1 O73 . .  2.649(8) no
Ce2 Ce5 . .  3.6120(11) no
Ce2 Ce6 . .  3.8308(11) no
Ce2 Ce29 . .  3.7319(11) no
Ce2 Ce38 . .  3.6626(10) no
Ce2 O4 . .  2.393(8) no
Ce2 O25 . .  2.148(10) no
Ce2 O37 . .  2.665(10) no
Ce2 O42 . .  2.224(9) no
Ce2 O45 . .  2.265(7) no
Ce2 O76 . .  2.311(9) no
Ce2 O187 . .  2.469(9) no
Ce2 O291 . .  2.421(11) no
Ce3 Ce6 . .  3.8693(11) no
Ce3 Ce10 . .  3.8500(11) no
Ce3 O4 . .  2.635(10) no
Ce3 O25 . .  2.334(8) no
Ce3 O32 . .  2.492(10) no
Ce3 O43 . .  2.625(9) no
Ce3 O53 . .  2.299(9) no
Ce3 O107 . .  2.363(11) no
Ce3 O134 . .  2.428(10) no
Ce3 O156 . .  2.470(8) no
Ce3 O377 . .  2.594(11) no
Ce4 Ce8 . .  3.6645(10) no
Ce4 Ce11 . .  3.6324(10) no
Ce4 Ce27 . .  3.8258(11) no
Ce4 Ce33 . .  3.7140(11) no
Ce4 O3 . .  2.258(8) no
Ce4 O16 . .  2.460(8) no
Ce4 O29 . .  2.328(7) no
Ce4 O36 . .  2.247(8) no
Ce4 O73 . .  2.597(10) no
Ce4 O98 . .  2.468(10) no
Ce4 O102 . .  2.171(8) no
Ce4 O220 . .  2.409(8) no
Ce5 Ce10 . .  3.8310(11) no
Ce5 Ce29 . .  3.6639(11) no
Ce5 Ce38 . .  3.6656(11) no
Ce5 O21 . .  2.229(9) no
Ce5 O25 . .  2.197(9) no
Ce5 O43 . .  2.464(10) no
Ce5 O57 . .  2.636(10) no
Ce5 O76 . .  2.313(9) no
Ce5 O178 . .  2.198(9) no
Ce5 O239 . .  2.535(9) no
Ce5 O295 . .  2.346(10) no
Ce6 Ce10 . .  3.6256(11) no
Ce6 Ce20 . .  3.6603(11) no
Ce6 Ce29 . .  3.6703(10) no
Ce6 O2 . .  2.222(8) no
Ce6 O4 . .  2.457(10) no
Ce6 O23 . .  2.330(9) no
Ce6 O42 . .  2.242(8) no
Ce6 O53 . .  2.188(9) no
Ce6 O112 . .  2.661(9) no
Ce6 O123 . .  2.323(11) no
Ce6 O213 . .  2.549(10) no
Ce7 Ce20 . .  3.6687(11) no
Ce7 Ce21 . .  3.6355(11) no
Ce7 Ce49 . .  3.8321(11) no
Ce7 Ce63 . .  3.7016(12) no
Ce7 O12 . .  2.355(8) no
Ce7 O44 . .  2.220(8) no
Ce7 O50 . .  2.201(9) no
Ce7 O89 . .  2.258(9) no
Ce7 O100 . .  2.453(9) no
Ce7 O168 . .  2.59(1) no
Ce7 O195 . .  2.443(10) no
Ce7 O241 . .  2.457(9) no
Ce8 Ce11 . .  3.6693(11) no
Ce8 Ce15 . .  3.6650(12) no
Ce8 O11 . .  2.464(10) no
Ce8 O29 . .  2.385(8) no
Ce8 O30 . .  2.183(8) no
Ce8 O36 . .  2.172(8) no
Ce8 O72 . .  2.424(9) no
Ce8 O127 . .  2.389(10) no
Ce8 O160 . .  2.38(1) no
Ce8 O185 . .  2.412(9) no
Ce9 Ce22 . .  3.8412(11) no
Ce9 Ce31 . .  3.6253(11) no
Ce9 Ce38 . .  3.6749(11) no
Ce9 Ce66 . .  3.7258(11) no
Ce9 O14 . .  2.432(9) no
Ce9 O37 . .  2.604(10) no
Ce9 O45 . .  2.223(8) no
Ce9 O96 . .  2.180(9) no
Ce9 O169 . .  2.233(11) no
Ce9 O197 . .  2.459(10) no
Ce9 O202 . .  2.372(9) no
Ce9 O262 . .  2.443(10) no
Ce10 Ce20 . .  3.6579(11) no
Ce10 Ce29 . .  3.7205(11) no
Ce10 O21 . .  2.247(9) no
Ce10 O23 . .  2.327(9) no
Ce10 O43 . .  2.357(9) no
Ce10 O50 . .  2.265(9) no
Ce10 O53 . .  2.176(9) no
Ce10 O168 . .  2.651(9) no
Ce10 O183 . .  2.424(10) no
Ce10 O240 . .  2.467(8) no
Ce11 Ce12 . .  3.8342(11) no
Ce11 Ce33 . .  3.6990(12) no
Ce11 O17 . .  2.258(11) no
Ce11 O29 . .  2.323(8) no
Ce11 O30 . .  2.222(8) no
Ce11 O54 . .  2.468(9) no
Ce11 O79 . .  2.484(10) no
Ce11 O102 . .  2.211(8) no
Ce11 O106 . .  2.625(10) no
Ce11 O284 . .  2.390(13) no
Ce12 Ce14 . .  3.6435(11) no
Ce12 Ce27 . .  3.7936(11) no
Ce12 Ce33 . .  3.7056(11) no
Ce12 Ce51 . .  3.6688(12) no
Ce12 O7 . .  2.202(9) no
Ce12 O17 . .  2.280(9) no
Ce12 O54 . .  2.397(10) no
Ce12 O91 . .  2.466(10) no
Ce12 O105 . .  2.331(10) no
Ce12 O194 . .  2.226(9) no
Ce12 O258 . .  2.673(9) no
Ce12 O376 . .  2.438(13) no
Ce13 Ce32 . .  3.6698(11) no
Ce13 Ce37 . .  3.8343(12) no
Ce13 Ce50 . .  3.6599(11) no
Ce13 Ce55 . .  3.6935(12) no
Ce13 O6 . .  2.390(9) no
Ce13 O31 . .  2.244(9) no
Ce13 O81 . .  2.595(9) no
Ce13 O101 . .  2.336(8) no
Ce13 O116 . .  2.197(9) no
Ce13 O139 . .  2.263(9) no
Ce13 O196 . .  2.447(9) no
Ce13 O292 . .  2.476(10) no
Ce14 Ce33 . .  3.6885(10) no
Ce14 Ce51 . .  3.6889(12) no
Ce14 O3 . .  2.245(8) no
Ce14 O7 . .  2.200(9) no
Ce14 O85 . .  2.232(11) no
Ce14 O105 . .  2.349(9) no
Ce14 O147 . .  2.480(12) no
Ce14 O198 . .  2.562(9) no
Ce14 O200 . .  2.358(11) no
Ce14 O220 . .  2.495(10) no
Ce15 Ce30 . .  3.8041(10) no
Ce15 Ce40 . .  3.6827(11) no
Ce15 O30 . .  2.250(9) no
Ce15 O67 . .  2.197(9) no
Ce15 O72 . .  2.315(9) no
Ce15 O93 . .  2.236(10) no
Ce15 O104 . .  2.423(9) no
Ce15 O106 . .  2.585(9) no
Ce15 O120 . .  2.486(10) no
Ce15 O403 . .  2.428(11) no
Ce16 Ce35 . .  3.6158(11) no
Ce16 Ce41 . .  3.8303(12) no
Ce16 Ce44 . .  3.6659(11) no
Ce16 Ce60 . .  3.7026(12) no
Ce16 O56 . .  2.432(9) no
Ce16 O63 . .  2.244(10) no
Ce16 O82 . .  2.253(9) no
Ce16 O84 . .  2.305(9) no
Ce16 O121 . .  2.208(10) no
Ce16 O132 . .  2.549(10) no
Ce16 O208 . .  2.60(1) no
Ce16 O412 . .  2.430(13) no
Ce17 Ce19 . .  3.6493(11) no
Ce17 Ce30 . .  3.8204(11) no
Ce17 Ce40 . .  3.7031(11) no
Ce17 Ce44 . .  3.6700(11) no
Ce17 O35 . .  2.247(9) no
Ce17 O38 . .  2.323(9) no
Ce17 O64 . .  2.428(9) no
Ce17 O66 . .  2.197(9) no
Ce17 O82 . .  2.231(10) no
Ce17 O153 . .  2.465(11) no
Ce17 O208 . .  2.603(10) no
Ce17 O243 . .  2.467(11) no
Ce18 Ce46 . .  3.8291(10) no
Ce18 Ce51 . .  3.6705(12) no
Ce18 Ce56 . .  3.6577(12) no
Ce18 Ce69 . .  3.7032(12) no
Ce18 O13 . .  2.220(9) no
Ce18 O61 . .  2.434(10) no
Ce18 O146 . .  2.338(11) no
Ce18 O164 . .  2.249(9) no
Ce18 O194 . .  2.201(9) no
Ce18 O258 . .  2.58(1) no
Ce18 O274 . .  2.437(10) no
Ce18 O366 . .  2.387(11) no
Ce19 Ce30 . .  3.8195(11) no
Ce19 Ce40 . .  3.7023(12) no
Ce19 Ce44 . .  3.6648(11) no
Ce19 O38 . .  2.307(9) no
Ce19 O65 . .  2.263(9) no
Ce19 O66 . .  2.233(8) no
Ce19 O93 . .  2.214(10) no
Ce19 O104 . .  2.447(9) no
Ce19 O175 . .  2.606(11) no
Ce19 O230 . .  2.515(9) no
Ce19 O309 . .  2.339(12) no
Ce20 Ce21 . .  3.6735(10) no
Ce20 O2 . .  2.197(9) no
Ce20 O12 . .  2.408(8) no
Ce20 O23 . .  2.392(9) no
Ce20 O39 . .  2.439(9) no
Ce20 O50 . .  2.200(9) no
Ce20 O142 . .  2.483(10) no
Ce20 O259 . .  2.447(12) no
Ce20 O277 . .  2.42(1) no
Ce21 Ce23 . .  3.8179(11) no
Ce21 Ce63 . .  3.7008(12) no
Ce21 O2 . .  2.234(7) no
Ce21 O12 . .  2.326(9) no
Ce21 O44 . .  2.180(9) no
Ce21 O86 . .  2.393(7) no
Ce21 O92 . .  2.242(10) no
Ce21 O112 . .  2.570(9) no
Ce21 O167 . .  2.496(10) no
Ce21 O269 . .  2.437(10) no
Ce22 Ce31 . .  3.8265(11) no
Ce22 Ce54 . .  3.8145(11) no
Ce22 O14 . .  2.588(10) no
Ce22 O51 . .  2.394(9) no
Ce22 O62 . .  2.270(9) no
Ce22 O80 . .  2.552(9) no
Ce22 O96 . .  2.280(9) no
Ce22 O166 . .  2.426(11) no
Ce22 O238 . .  2.457(11) no
Ce22 O254 . .  2.401(10) no
Ce22 O383 . .  2.515(9) no
Ce23 Ce47 . .  3.8244(12) no
Ce23 Ce49 . .  3.8312(12) no
Ce23 O44 . .  2.239(8) no
Ce23 O68 . .  2.446(10) no
Ce23 O86 . .  2.567(9) no
Ce23 O100 . .  2.611(9) no
Ce23 O119 . .  2.429(9) no
Ce23 O151 . .  2.218(10) no
Ce23 O273 . 2_666  2.389(11) no
Ce23 O324 . .  2.411(8) no
Ce23 O327 . .  2.574(11) no
Ce24 Ce32 . .  3.6533(11) no
Ce24 Ce42 . .  3.8150(12) no
Ce24 Ce45 . .  3.6237(11) no
Ce24 Ce62 . .  3.7208(11) no
Ce24 O9 . .  2.28(1) no
Ce24 O18 . .  2.369(9) no
Ce24 O31 . .  2.231(9) no
Ce24 O48 . .  2.302(8) no
Ce24 O60 . .  2.156(9) no
Ce24 O81 . .  2.598(10) no
Ce24 O260 . .  2.421(10) no
Ce24 O328 . .  2.445(9) no
Ce25 Ce35 . .  3.8398(12) no
Ce25 Ce41 . .  3.6251(11) no
Ce25 Ce57 . .  3.6621(12) no
Ce25 Ce60 . .  3.6915(12) no
Ce25 O15 . .  2.282(9) no
Ce25 O24 . .  2.226(10) no
Ce25 O78 . .  2.264(10) no
Ce25 O130 . .  2.634(9) no
Ce25 O162 . .  2.20(1) no
Ce25 O203 . .  2.398(11) no
Ce25 O211 . .  2.489(11) no
Ce25 O286 . .  2.479(10) no
Ce26 Ce54 . .  3.6400(12) no
Ce26 Ce66 . .  3.6654(12) no
Ce26 Ce67 . .  3.6919(12) no
Ce26 O14 . .  2.436(9) no
Ce26 O62 . .  2.173(9) no
Ce26 O95 . .  2.543(9) no
Ce26 O143 . .  2.479(12) no
Ce26 O169 . .  2.217(12) no
Ce26 O173 . .  2.222(10) no
Ce26 O229 . .  2.442(10) no
Ce26 O290 . .  2.313(9) no
Ce27 O7 . .  2.231(9) no
Ce27 O54 . .  2.560(9) no
Ce27 O102 . .  2.285(8) no
Ce27 O131 . .  2.454(12) no
Ce27 O159 . .  2.372(9) no
Ce27 O215 . .  2.443(11) no
Ce27 O220 . .  2.554(11) no
Ce27 O285 . .  2.369(11) no
Ce27 O402 . .  2.600(12) no
Ce28 Ce34 . .  3.6606(11) no
Ce28 Ce37 . .  3.8240(11) no
Ce28 Ce55 . .  3.6960(11) no
Ce28 Ce57 . .  3.6702(12) no
Ce28 O26 . .  2.336(9) no
Ce28 O33 . .  2.159(9) no
Ce28 O78 . .  2.211(10) no
Ce28 O130 . .  2.587(9) no
Ce28 O139 . .  2.243(8) no
Ce28 O190 . .  2.471(11) no
Ce28 O196 . .  2.410(9) no
Ce28 O293 . .  2.486(12) no
Ce29 O21 . .  2.137(9) no
Ce29 O23 . .  2.484(9) no
Ce29 O42 . .  2.162(9) no
Ce29 O70 . .  2.396(9) no
Ce29 O76 . .  2.491(10) no
Ce29 O124 . .  2.427(9) no
Ce29 O155 . .  2.372(9) no
Ce29 O294 . .  2.426(11) no
Ce30 O64 . .  2.529(9) no
Ce30 O66 . .  2.202(8) no
Ce30 O67 . .  2.207(9) no
Ce30 O104 . .  2.509(9) no
Ce30 O110 . .  2.406(9) no
Ce30 O171 . .  2.367(9) no
Ce30 O302 . .  2.439(12) no
Ce30 O357 . .  2.369(11) no
Ce30 O370 . .  2.625(9) no
Ce31 Ce38 . .  3.6711(11) no
Ce31 Ce66 . .  3.6913(13) no
Ce31 O57 . .  2.602(10) no
Ce31 O80 . .  2.380(9) no
Ce31 O96 . .  2.188(9) no
Ce31 O178 . .  2.252(9) no
Ce31 O202 . .  2.29(1) no
Ce31 O219 . .  2.497(10) no
Ce31 O267 . .  2.255(11) no
Ce31 O336 . .  2.447(12) no
Ce32 Ce45 . .  3.6708(12) no
Ce32 Ce50 . .  3.6796(12) no
Ce32 O31 . .  2.192(8) no
Ce32 O48 . .  2.426(9) no
Ce32 O101 . .  2.399(10) no
Ce32 O108 . .  2.21(1) no
Ce32 O149 . .  2.40(1) no
Ce32 O157 . .  2.43(1) no
Ce32 O180 . .  2.407(10) no
Ce32 O271 . .  2.481(10) no
Ce33 O3 . .  2.134(8) no
Ce33 O10 . .  2.42(1) no
Ce33 O17 . .  2.124(10) no
Ce33 O29 . .  2.523(8) no
Ce33 O55 . .  2.433(9) no
Ce33 O97 . .  2.396(9) no
Ce33 O105 . .  2.447(8) no
Ce33 O163 . .  2.405(11) no
Ce34 Ce50 . .  3.8172(12) no
Ce34 Ce55 . .  3.7055(13) no
Ce34 Ce57 . .  3.6702(12) no
Ce34 O26 . .  2.366(10) no
Ce34 O27 . .  2.253(10) no
Ce34 O33 . .  2.227(8) no
Ce34 O40 . .  2.226(10) no
Ce34 O117 . .  2.479(11) no
Ce34 O210 . .  2.447(10) no
Ce34 O228 . .  2.575(10) no
Ce34 O372 . .  2.368(12) no
Ce35 Ce44 . .  3.6855(12) no
Ce35 Ce60 . .  3.6901(12) no
Ce35 O24 . .  2.235(10) no
Ce35 O65 . .  2.258(9) no
Ce35 O84 . .  2.313(10) no
Ce35 O121 . .  2.195(9) no
Ce35 O175 . .  2.651(11) no
Ce35 O203 . .  2.412(11) no
Ce35 O255 . .  2.479(9) no
Ce35 O381 . .  2.446(15) no
Ce36 Ce53 . .  3.8415(12) no
Ce36 Ce59 . .  3.8170(11) no
Ce36 Ce61 . .  3.8262(11) no
Ce36 O8 . .  2.266(10) no
Ce36 O83 . .  2.521(9) no
Ce36 O122 . .  2.233(10) no
Ce36 O145 . .  2.598(10) no
Ce36 O150 . .  2.383(12) no
Ce36 O174 . .  2.371(9) no
Ce36 O181 . .  2.474(10) no
Ce36 O319 . .  2.414(11) no
Ce36 O335 . .  2.586(12) no
Ce37 Ce50 . .  3.8005(11) no
Ce37 O33 . .  2.242(9) no
Ce37 O116 . .  2.221(10) no
Ce37 O118 . .  2.404(9) no
Ce37 O196 . .  2.557(10) no
Ce37 O206 . .  2.45(1) no
Ce37 O210 . .  2.498(10) no
Ce37 O249 . .  2.401(10) no
Ce37 O298 . .  2.603(10) no
Ce37 O317 . .  2.404(10) no
Ce38 O45 . .  2.193(8) no
Ce38 O76 . .  2.412(9) no
Ce38 O165 . .  2.420(9) no
Ce38 O178 . .  2.215(9) no
Ce38 O202 . .  2.432(9) no
Ce38 O217 . .  2.461(11) no
Ce38 O276 . .  2.42(1) no
Ce38 O308 . .  2.419(10) no
Ce39 Ce42 . .  3.8440(13) no
Ce39 Ce58 . .  3.6487(12) no
Ce39 Ce62 . .  3.6873(12) no
Ce39 Ce64 . .  3.7052(11) no
Ce39 O9 . .  2.234(10) no
Ce39 O18 . .  2.462(10) no
Ce39 O22 . .  2.158(10) no
Ce39 O74 . .  2.246(9) no
Ce39 O94 . .  2.586(11) no
Ce39 O216 . .  2.340(9) no
Ce39 O222 . .  2.396(10) no
Ce39 O312 . .  2.466(11) no
Ce40 O20 . .  2.425(9) no
Ce40 O35 . .  2.142(9) no
Ce40 O38 . .  2.485(10) no
Ce40 O72 . .  2.470(9) no
Ce40 O90 . .  2.397(11) no
Ce40 O93 . .  2.167(10) no
Ce40 O225 . .  2.394(10) no
Ce40 O289 . .  2.396(10) no
Ce41 Ce57 . .  3.6832(12) no
Ce41 Ce60 . .  3.6979(12) no
Ce41 O15 . .  2.339(9) no
Ce41 O40 . .  2.23(1) no
Ce41 O56 . .  2.425(9) no
Ce41 O63 . .  2.229(10) no
Ce41 O162 . .  2.147(9) no
Ce41 O228 . .  2.642(10) no
Ce41 O342 . .  2.487(15) no
Ce41 O343 . .  2.517(12) no
Ce42 Ce58 . .  3.8249(11) no
Ce42 O18 . .  2.558(10) no
Ce42 O22 . .  2.274(10) no
Ce42 O60 . .  2.278(9) no
Ce42 O69 . .  2.542(10) no
Ce42 O77 . .  2.461(12) no
Ce42 O154 . .  2.403(9) no
Ce42 O278 . .  2.378(11) no
Ce42 O320 . .  2.429(13) no
Ce42 O355 . .  2.546(12) no
Ce43 O56 . .  2.598(9) no
Ce43 O121 . .  2.286(10) no
Ce43 O152 . .  2.403(11) no
Ce43 O162 . .  2.320(8) no
Ce43 O203 . .  2.586(11) no
Ce43 O332 . .  2.457(11) no
Ce43 O337 . .  2.427(12) no
Ce43 O338 . .  2.440(9) no
Ce43 O398 . .  2.572(12) no
Ce44 O38 . .  2.44(1) no
Ce44 O65 . .  2.137(9) no
Ce44 O82 . .  2.176(9) no
Ce44 O84 . .  2.44(1) no
Ce44 O176 . .  2.408(11) no
Ce44 O179 . .  2.426(9) no
Ce44 O221 . .  2.437(10) no
Ce44 O227 . .  2.417(10) no
Ce45 Ce58 . .  3.8134(12) no
Ce45 Ce62 . .  3.7020(13) no
Ce45 O48 . .  2.336(9) no
Ce45 O60 . .  2.205(9) no
Ce45 O69 . .  2.449(10) no
Ce45 O108 . .  2.222(10) no
Ce45 O109 . .  2.492(11) no
Ce45 O184 . .  2.209(12) no
Ce45 O226 . .  2.597(11) no
Ce45 O352 . .  2.423(11) no
Ce46 Ce48 . .  3.7986(12) no
Ce46 Ce65 . .  3.6602(14) no
Ce46 Ce68 . .  3.6812(12) no
Ce46 Ce69 . .  3.7052(13) no
Ce46 O41 . .  2.200(9) no
Ce46 O61 . .  2.412(9) no
Ce46 O135 . .  2.443(12) no
Ce46 O164 . .  2.257(10) no
Ce46 O189 . .  2.54(1) no
Ce46 O207 . .  2.268(8) no
Ce46 O233 . .  2.365(9) no
Ce46 O401 . .  2.446(13) no
Ce47 Ce49 . .  3.6585(12) no
Ce47 Ce63 . .  3.6911(11) no
Ce47 Ce68 . .  3.6782(13) no
Ce47 O86 . .  2.424(9) no
Ce47 O92 . .  2.225(9) no
Ce47 O151 . .  2.216(10) no
Ce47 O189 . .  2.624(9) no
Ce47 O205 . .  2.334(10) no
Ce47 O207 . .  2.211(10) no
Ce47 O237 . .  2.364(13) no
Ce47 O296 . .  2.498(12) no
Ce48 Ce56 . .  3.8145(13) no
Ce48 O13 . .  2.209(9) no
Ce48 O41 . .  2.219(9) no
Ce48 O49 . .  2.554(10) no
Ce48 O61 . .  2.508(11) no
Ce48 O115 . 2_666  2.438(8) no
Ce48 O248 . .  2.408(11) no
Ce48 O316 . .  2.361(10) no
Ce48 O348 . .  2.376(9) no
Ce48 O368 . .  2.596(12) no
Ce49 Ce63 . .  3.6786(13) no
Ce49 Ce68 . .  3.6868(14) no
Ce49 O89 . .  2.234(8) no
Ce49 O100 . .  2.403(9) no
Ce49 O151 . .  2.220(9) no
Ce49 O205 . .  2.314(12) no
Ce49 O236 . .  2.218(10) no
Ce49 O251 . 2_666  2.549(10) no
Ce49 O315 . .  2.483(12) no
Ce49 O384 . .  2.425(13) no
Ce50 Ce55 . .  3.6878(12) no
Ce50 O27 . .  2.244(10) no
Ce50 O101 . .  2.332(9) no
Ce50 O108 . .  2.20(1) no
Ce50 O116 . .  2.214(9) no
Ce50 O210 . .  2.414(9) no
Ce50 O226 . .  2.611(10) no
Ce50 O244 . .  2.446(11) no
Ce50 O382 . .  2.419(13) no
Ce51 Ce56 . .  3.6504(11) no
Ce51 O58 . .  2.382(10) no
Ce51 O85 . .  2.227(11) no
Ce51 O88 . .  2.443(9) no
Ce51 O105 . .  2.438(9) no
Ce51 O146 . .  2.395(9) no
Ce51 O194 . .  2.217(11) no
Ce51 O247 . .  2.421(13) no
Ce51 O272 . .  2.439(11) no
Ce52 Ce53 . .  3.8020(12) no
Ce52 Ce59 . .  3.6441(12) no
Ce52 Ce64 . .  3.6368(12) no
Ce52 Ce70 . .  3.7151(12) no
Ce52 O8 . .  2.182(11) no
Ce52 O28 . .  2.247(9) no
Ce52 O74 . .  2.226(11) no
Ce52 O94 . .  2.595(11) no
Ce52 O103 . .  2.268(9) no
Ce52 O137 . .  2.518(13) no
Ce52 O145 . .  2.411(10) no
Ce52 O353 . .  2.428(12) no
Ce53 Ce61 . .  3.6179(12) no
Ce53 Ce67 . .  3.6386(12) no
Ce53 Ce70 . .  3.6978(12) no
Ce53 O28 . .  2.205(10) no
Ce53 O95 . .  2.701(9) no
Ce53 O122 . .  2.21(1) no
Ce53 O140 . .  2.302(12) no
Ce53 O145 . .  2.439(9) no
Ce53 O173 . .  2.196(10) no
Ce53 O193 . .  2.578(11) no
Ce53 O257 . .  2.291(9) no
Ce54 Ce66 . .  3.7051(13) no
Ce54 Ce67 . .  3.6716(13) no
Ce54 O62 . .  2.187(8) no
Ce54 O80 . .  2.414(10) no
Ce54 O129 . .  2.248(11) no
Ce54 O209 . .  2.60(1) no
Ce54 O267 . .  2.24(1) no
Ce54 O290 . .  2.312(10) no
Ce54 O321 . .  2.490(9) no
Ce54 O322 . .  2.359(12) no
Ce55 O26 . .  2.497(9) no
Ce55 O27 . .  2.108(10) no
Ce55 O59 . .  2.465(10) no
Ce55 O101 . .  2.482(10) no
Ce55 O139 . .  2.130(8) no
Ce55 O141 . .  2.406(10) no
Ce55 O299 . .  2.379(11) no
Ce55 O334 . .  2.417(10) no
Ce56 Ce65 . .  3.8137(11) no
Ce56 Ce69 . .  3.7201(14) no
Ce56 O13 . .  2.20(1) no
Ce56 O49 . .  2.413(9) no
Ce56 O85 . .  2.188(9) no
Ce56 O146 . .  2.311(10) no
Ce56 O170 . .  2.281(12) no
Ce56 O177 . .  2.510(15) no
Ce56 O198 . .  2.627(11) no
Ce56 O397 . .  2.466(14) no
Ce57 O15 . .  2.376(10) no
Ce57 O26 . .  2.376(10) no
Ce57 O40 . .  2.172(9) no
Ce57 O78 . .  2.176(11) no
Ce57 O114 . .  2.425(10) no
Ce57 O126 . .  2.437(11) no
Ce57 O158 . .  2.398(11) no
Ce57 O288 . .  2.420(11) no
Ce58 Ce62 . .  3.7065(13) no
Ce58 Ce64 . .  3.6448(14) no
Ce58 O22 . .  2.220(8) no
Ce58 O69 . .  2.408(11) no
Ce58 O184 . .  2.259(11) no
Ce58 O214 . .  2.498(12) no
Ce58 O216 . .  2.303(11) no
Ce58 O224 . .  2.192(9) no
Ce58 O245 . .  2.638(13) no
Ce58 O399 . .  2.431(12) no
Ce59 Ce64 . .  3.6971(13) no
Ce59 Ce70 . .  3.7050(15) no
Ce59 O8 . .  2.183(9) no
Ce59 O83 . .  2.455(9) no
Ce59 O103 . .  2.359(11) no
Ce59 O182 . .  2.445(11) no
Ce59 O224 . .  2.261(9) no
Ce59 O245 . .  2.622(12) no
Ce59 O264 . .  2.258(10) no
Ce59 O392 . .  2.401(14) no
Ce60 O15 . .  2.527(10) no
Ce60 O24 . .  2.148(9) no
Ce60 O63 . .  2.15(1) no
Ce60 O84 . .  2.467(10) no
Ce60 O136 . .  2.441(10) no
Ce60 O235 . .  2.414(11) no
Ce60 O275 . .  2.406(12) no
Ce60 O306 . .  2.413(12) no
Ce61 Ce67 . .  3.6803(13) no
Ce61 Ce70 . .  3.7059(14) no
Ce61 O83 . .  2.422(10) no
Ce61 O122 . .  2.189(8) no
Ce61 O129 . .  2.237(10) no
Ce61 O209 . .  2.586(10) no
Ce61 O257 . .  2.30(1) no
Ce61 O264 . .  2.264(11) no
Ce61 O340 . .  2.451(11) no
Ce61 O404 . .  2.447(13) no
Ce62 O9 . .  2.140(9) no
Ce62 O48 . .  2.481(9) no
Ce62 O133 . .  2.414(9) no
Ce62 O138 . .  2.443(9) no
Ce62 O184 . .  2.162(12) no
Ce62 O216 . .  2.493(9) no
Ce62 O303 . .  2.383(11) no
Ce62 O304 . .  2.421(11) no
Ce63 O12 . .  2.474(8) no
Ce63 O89 . .  2.134(11) no
Ce63 O92 . .  2.159(9) no
Ce63 O161 . .  2.398(13) no
Ce63 O172 . .  2.436(11) no
Ce63 O205 . .  2.454(9) no
Ce63 O280 . .  2.422(10) no
Ce63 O378 . .  2.439(12) no
Ce64 O74 . .  2.193(10) no
Ce64 O103 . .  2.419(9) no
Ce64 O188 . .  2.471(12) no
Ce64 O216 . .  2.398(9) no
Ce64 O224 . .  2.193(12) no
Ce64 O344 . .  2.451(11) no
Ce64 O356 . .  2.412(13) no
Ce64 O362 . .  2.385(10) no
Ce65 Ce68 . .  3.6526(16) no
Ce65 Ce69 . .  3.6836(15) no
Ce65 O41 . .  2.209(9) no
Ce65 O49 . .  2.407(10) no
Ce65 O170 . .  2.252(10) no
Ce65 O233 . .  2.322(12) no
Ce65 O236 . .  2.237(8) no
Ce65 O251 . 2_666  2.672(10) no
Ce65 O425 . .  2.567(18) no
Ce65 O451 . .  2.29(2) no
Ce66 O169 . .  2.163(10) no
Ce66 O202 . .  2.476(9) no
Ce66 O218 . .  2.399(11) no
Ce66 O267 . .  2.154(12) no
Ce66 O290 . .  2.486(10) no
Ce66 O318 . .  2.381(10) no
Ce66 O351 . .  2.439(12) no
Ce66 O363 . .  2.376(11) no
Ce67 O129 . .  2.168(11) no
Ce67 O173 . .  2.238(9) no
Ce67 O257 . .  2.403(10) no
Ce67 O270 . .  2.405(11) no
Ce67 O290 . .  2.423(10) no
Ce67 O300 . .  2.478(11) no
Ce67 O350 . .  2.443(12) no
Ce67 O375 . .  2.396(12) no
Ce68 O204 . .  2.498(11) no
Ce68 O205 . .  2.433(10) no
Ce68 O207 . .  2.168(11) no
Ce68 O233 . .  2.364(8) no
Ce68 O236 . .  2.186(13) no
Ce68 O371 . .  2.398(13) no
Ce68 O385 . .  2.462(11) no
Ce68 O388 . .  2.394(10) no
Ce69 O144 . .  2.371(12) no
Ce69 O146 . .  2.508(9) no
Ce69 O164 . .  2.111(12) no
Ce69 O170 . .  2.077(13) no
Ce69 O233 . .  2.474(9) no
Ce69 O234 . .  2.437(11) no
Ce69 O311 . .  2.439(12) no
Ce69 O369 . .  2.345(12) no
Ce70 O28 . .  2.154(9) no
Ce70 O103 . .  2.501(10) no
Ce70 O232 . .  2.392(14) no
Ce70 O257 . .  2.540(9) no
Ce70 O263 . .  2.428(11) no
Ce70 O264 . .  2.133(11) no
Ce70 O301 . .  2.419(14) no
Ce70 O313 . .  2.410(13) no
Ce72 O148 . .  2.60(1) no
Ce72 O253 . .  2.383(9) no
Ce72 O331 . .  2.604(15) no
Ce72 O424 . .  2.50(2) no
Ce72 O428 . .  2.56(2) no
Ce72 O444 . .  2.62(3) no
Ce72 O446 . .  2.57(2) no
Ce72 O454 . .  2.61(3) no
Ce73 O87 . .  2.895(13) no
Ce73 O148 . .  2.526(11) no
Ce73 O253 . .  2.452(10) no
Ce73 O331 . .  2.327(13) no
Ce73 O424 . .  2.76(2) no
Ce73 O440 . .  2.757(17) no
Ce73 O441 . .  2.57(3) no
Ce73 O452 . .  2.74(4) no
Ce73 O453 . .  2.449(16) no
Ce74 S49 . .  3.172(4) no
Ce74 O19 . 2_666  2.500(9) no
Ce74 O113 . .  2.494(11) no
Ce74 O199 . .  2.530(11) no
Ce74 O307 . .  2.618(9) no
Ce74 O310 . .  2.465(11) no
Ce74 O341 . .  2.514(13) no
Ce74 O374 . .  2.584(13) no
Ce74 O394 . .  2.533(13) no
Ce74 O414 . .  2.547(14) no
Ce75 S64 . .  3.172(5) no
Ce75 O128 . .  2.501(10) no
Ce75 O265 . 2_667  2.524(11) no
Ce75 O330 . .  2.525(9) no
Ce75 O391 . .  2.666(14) no
Ce75 O407 . .  2.580(11) no
Ce75 O415 . .  2.507(12) no
Ce75 O418 . .  2.508(14) no
Ce75 O419 . .  2.633(12) no
Ce75 O422 . .  2.546(16) no
Ce76 O380 . .  2.498(15) no
Ce76 O427 . .  2.58(3) no
Ce76 O429 . .  2.35(4) no
Ce76 O430 . .  2.57(2) no
Ce76 O431 . .  2.55(2) no
Ce76 O433 . .  2.70(2) no
Ce76 O434 . .  2.48(2) no
Ce76 O447 . .  2.28(6) no
Ce77 S3 . .  3.311(3) no
Ce77 S35 . 2_667  3.233(4) no
Ce77 O47 . 2_667  2.465(10) no
Ce77 O52 . .  2.622(11) no
Ce77 O71 . 2_667  2.600(11) no
Ce77 O99 . .  2.484(9) no
Ce77 O111 . .  2.741(10) no
Ce77 O250 . .  2.568(11) no
Ce77 O252 . .  2.567(11) no
Ce77 O297 . 2_667  2.609(13) no
Ce77 O396 . .  2.685(14) no
Ce77 O443 . .  2.530(12) no
Co1 O426 . .  2.102(13) no
Co1 O432 . .  2.116(13) no
Co1 O435 . .  2.29(4) no
Co1 O437 . .  2.31(4) no
Co1 O438 . .  2.41(5) no
Co1 O442 . .  2.25(3) no
S1 O68 . .  1.406(10) no
S1 O107 . .  1.462(11) no
S1 O168 . .  1.509(10) no
S1 O192 . .  1.431(11) no
S2 O11 . .  1.490(11) no
S2 O16 . .  1.471(9) no
S2 O19 . .  1.461(10) no
S2 O55 . .  1.478(9) no
S3 O1 . .  1.466(10) no
S3 O6 . .  1.466(9) no
S3 O52 . .  1.468(10) no
S3 O111 . .  1.465(12) no
S4 O32 . .  1.455(11) no
S4 O57 . .  1.488(10) no
S4 O113 . .  1.467(10) no
S4 O166 . .  1.458(11) no
S5 O112 . .  1.494(9) no
S5 O119 . .  1.440(9) no
S5 O128 . .  1.450(9) no
S5 O156 . .  1.499(8) no
S6 O73 . .  1.479(10) no
S6 O159 . .  1.466(10) no
S6 O253 . .  1.442(9) no
S6 O302 . .  1.441(12) no
S7 O81 . .  1.510(9) no
S7 O99 . .  1.447(10) no
S7 O154 . .  1.452(10) no
S7 O206 . .  1.459(11) no
S8 O10 . .  1.48(1) no
S8 O46 . .  1.479(10) no
S8 O88 . .  1.480(11) no
S8 O91 . .  1.454(11) no
S9 O5 . .  1.470(9) no
S9 O75 . .  1.465(10) no
S9 O87 . .  1.457(12) no
S9 O148 . .  1.467(10) no
S10 O124 . .  1.475(10) no
S10 O165 . .  1.478(10) no
S10 O186 . .  1.467(9) no
S10 O187 . .  1.484(10) no
S11 O171 . .  1.466(10) no
S11 O208 . .  1.530(9) no
S11 O223 . .  1.406(11) no
S11 O337 . .  1.478(12) no
S12 O37 . .  1.484(10) no
S12 O134 . .  1.447(10) no
S12 O254 . .  1.469(10) no
S12 O256 . .  1.449(10) no
S13 O77 . .  1.451(12) no
S13 O94 . .  1.528(11) no
S13 O174 . .  1.462(11) no
S13 O261 . .  1.450(12) no
S14 O118 . .  1.465(10) no
S14 O130 . .  1.519(9) no
S14 O191 . .  1.454(12) no
S14 O332 . .  1.471(11) no
S15 O106 . .  1.494(10) no
S15 O110 . .  1.423(9) no
S15 O131 . .  1.472(11) no
S15 O359 . .  1.466(12) no
S16 O47 . .  1.448(10) no
S16 O51 . .  1.477(11) no
S16 O95 . .  1.480(9) no
S16 O181 . .  1.484(10) no
S17 O150 . .  1.445(12) no
S17 O209 . .  1.502(11) no
S17 O238 . .  1.444(11) no
S17 O339 . .  1.471(12) no
S18 O20 . .  1.477(9) no
S18 O34 . .  1.489(9) no
S18 O125 . .  1.467(10) no
S18 O160 . .  1.487(10) no
S19 O90 . .  1.450(11) no
S19 O153 . .  1.486(12) no
S19 O176 . .  1.501(13) no
S19 O367 . .  1.496(11) no
S20 O228 . .  1.488(10) no
S20 O249 . .  1.477(10) no
S20 O326 . .  1.428(12) no
S20 O338 . .  1.447(9) no
S21 O189 . .  1.503(10) no
S21 O324 . .  1.471(10) no
S21 O348 . .  1.469(10) no
S21 O354 . .  1.483(12) no
S22 O161 . .  1.501(13) no
S22 O167 . .  1.505(11) no
S22 O201 . .  1.460(11) no
S22 O259 . .  1.435(12) no
S23 O197 . .  1.480(11) no
S23 O217 . .  1.442(12) no
S23 O218 . .  1.478(11) no
S23 O314 . .  1.494(11) no
S24 O59 . .  1.449(12) no
S24 O157 . .  1.492(11) no
S24 O244 . .  1.488(12) no
S24 O287 . .  1.475(9) no
S25 O152 . .  1.469(10) no
S25 O175 . .  1.487(10) no
S25 O357 . .  1.459(13) no
S25 O380 . .  1.473(15) no
S26 O198 . .  1.525(11) no
S26 O215 . .  1.454(13) no
S26 O248 . .  1.425(11) no
S26 O345 . .  1.440(11) no
S27 O132 . .  1.465(11) no
S27 O179 . .  1.465(9) no
S27 O235 . .  1.483(12) no
S27 O333 . .  1.464(12) no
S28 O79 . .  1.525(12) no
S28 O97 . .  1.449(11) no
S28 O127 . .  1.494(10) no
S28 O266 . .  1.443(10) no
S29 O70 . .  1.454(11) no
S29 O212 . .  1.441(10) no
S29 O239 . .  1.472(9) no
S29 O276 . .  1.490(11) no
S30 O115 . .  1.446(9) no
S30 O251 . .  1.462(12) no
S30 O273 . .  1.479(12) no
S30 O331 . .  1.465(12) no
S31 O245 . .  1.473(13) no
S31 O278 . .  1.461(12) no
S31 O319 . .  1.441(11) no
S31 O364 . .  1.448(12) no
S32 O258 . .  1.462(11) no
S32 O285 . .  1.501(11) no
S32 O316 . .  1.498(10) no
S32 O323 . .  1.450(13) no
S33 O149 . .  1.459(11) no
S33 O282 . .  1.479(11) no
S33 O292 . .  1.486(10) no
S33 O334 . .  1.48(1) no
S34 O226 . .  1.492(10) no
S34 O317 . .  1.436(10) no
S34 O320 . .  1.466(12) no
S34 O329 . .  1.439(12) no
S35 O71 . .  1.512(12) no
S35 O140 . .  1.451(12) no
S35 O242 . .  1.485(13) no
S35 O297 . .  1.499(13) no
S36 O120 . .  1.493(12) no
S36 O185 . .  1.482(10) no
S36 O225 . .  1.493(11) no
S36 O395 . .  1.474(10) no
S37 O39 . .  1.440(11) no
S37 O240 . .  1.469(11) no
S37 O268 . .  1.453(12) no
S37 O294 . .  1.510(12) no
S38 O138 . .  1.484(9) no
S38 O260 . .  1.485(11) no
S38 O265 . .  1.459(12) no
S38 O271 . .  1.483(10) no
S39 O142 . .  1.454(11) no
S39 O155 . .  1.501(11) no
S39 O213 . .  1.451(11) no
S39 O389 . .  1.485(11) no
S40 O58 . .  1.482(12) no
S40 O147 . .  1.495(13) no
S40 O163 . .  1.486(10) no
S40 O325 . .  1.466(12) no
S41 O109 . .  1.511(13) no
S41 O180 . .  1.474(11) no
S41 O303 . .  1.518(13) no
S41 O346 . .  1.463(11) no
S42 O117 . .  1.490(13) no
S42 O141 . .  1.473(11) no
S42 O158 . .  1.517(13) no
S42 O281 . .  1.47(1) no
S43 O231 . .  1.473(11) no
S43 O241 . .  1.468(11) no
S43 O277 . .  1.485(12) no
S43 O280 . .  1.488(12) no
S44 O144 . .  1.482(13) no
S44 O272 . .  1.455(12) no
S44 O274 . .  1.512(12) no
S44 O400 . .  1.504(15) no
S45 O126 . .  1.473(14) no
S45 O275 . .  1.507(13) no
S45 O286 . .  1.501(12) no
S45 O365 . .  1.428(13) no
S46 O190 . .  1.537(12) no
S46 O288 . .  1.456(12) no
S46 O299 . .  1.501(12) no
S46 O390 . .  1.455(13) no
S47 O135 . .  1.485(13) no
S47 O204 . .  1.477(11) no
S47 O234 . .  1.460(12) no
S47 O305 . .  1.494(10) no
S48 O177 . .  1.485(19) no
S48 O247 . .  1.480(13) no
S48 O311 . .  1.451(15) no
S48 O373 . .  1.472(14) no
S49 O295 . .  1.451(11) no
S49 O307 . .  1.481(13) no
S49 O310 . .  1.566(14) no
S49 O393 . .  1.456(14) no
S50 O304 . .  1.481(13) no
S50 O312 . .  1.511(13) no
S50 O344 . .  1.478(13) no
S50 O361 . .  1.477(13) no
S51 O143 . .  1.491(13) no
S51 O347 . .  1.445(14) no
S51 O350 . .  1.502(11) no
S51 O363 . .  1.499(13) no
S52 O136 . .  1.475(12) no
S52 O221 . .  1.465(13) no
S52 O255 . .  1.495(11) no
S52 O283 . .  1.456(11) no
S53 O227 . .  1.461(12) no
S53 O230 . .  1.442(11) no
S53 O246 . .  1.492(10) no
S53 O289 . .  1.478(12) no
S54 O263 . .  1.464(13) no
S54 O300 . .  1.425(13) no
S54 O340 . .  1.531(14) no
S54 O387 . .  1.438(13) no
S55 O114 . .  1.460(12) no
S55 O306 . .  1.484(14) no
S55 O343 . .  1.460(14) no
S55 O406 . .  1.484(14) no
S56 O321 . .  1.497(13) no
S56 O351 . .  1.492(15) no
S56 O375 . .  1.476(15) no
S56 O410 . .  1.458(12) no
S57 O182 . .  1.512(14) no
S57 O188 . .  1.467(15) no
S57 O313 . .  1.513(16) no
S57 O360 . .  1.474(12) no
S58 O137 . .  1.457(14) no
S58 O232 . .  1.496(14) no
S58 O356 . .  1.456(14) no
S58 O386 . .  1.474(12) no
S59 O133 . .  1.487(12) no
S59 O214 . .  1.487(14) no
S59 O349 . .  1.469(11) no
S59 O362 . .  1.496(14) no
S60 O219 . .  1.499(13) no
S60 O279 . .  1.456(12) no
S60 O308 . .  1.483(11) no
S60 O318 . .  1.466(12) no
S61 O193 . .  1.507(12) no
S61 O270 . .  1.459(13) no
S61 O301 . .  1.453(12) no
S61 O358 . .  1.474(13) no
S62 O172 . .  1.441(11) no
S62 O296 . .  1.465(14) no
S62 O371 . .  1.476(15) no
S62 O379 . .  1.494(14) no
S63 O315 . .  1.441(17) no
S63 O378 . .  1.490(15) no
S63 O385 . .  1.476(13) no
S63 O411 . .  1.459(12) no
S64 O123 . .  1.479(12) no
S64 O330 . .  1.427(12) no
S64 O391 . .  1.529(13) no
S64 O413 . .  1.466(14) no
S65 O222 . .  1.474(11) no
S65 O405 . .  1.457(18) no
S65 O408 . .  1.571(16) no
S65 O416 . .  1.486(17) no
S66 O309 . .  1.441(14) no
S66 O417 . .  1.476(18) no
S66 O420 . .  1.64(2) no
S66 O423 . .  1.51(3) no
S67 O369 . .  1.508(13) no
S67 O388 . .  1.455(12) no
S67 O421 . .  1.501(14) no
S67 O425 . .  1.654(19) no
S68 O322 . .  1.467(14) no
S68 O409 . .  1.567(18) no
S68 O436 . .  1.63(3) no
S68 O448 . .  1.53(3) no
O200 O449 . .  1.392(16) no
O439 O445 . 2_666  1.53(3) no
O445 O453 . 2_666  1.261(19) no

loop_
_geom_angle_atom_site_label_1
_geom_angle_atom_site_label_2
_geom_angle_atom_site_label_3
_geom_angle_site_symmetry_1
_geom_angle_site_symmetry_2
_geom_angle_site_symmetry_3
_geom_angle
_geom_angle_publ_flag
Ce8 Ce1 Ce30 . . . 117.28(3) no
Ce8 Ce1 Ce40 . . . 78.46(2) no
Ce15 Ce1 Ce8 . . . 60.00(2) no
Ce15 Ce1 Ce30 . . . 61.07(2) no
Ce15 Ce1 Ce40 . . . 60.14(2) no
Ce40 Ce1 Ce30 . . . 90.19(2) no
O5 Ce1 Ce8 . . . 124.2(3) no
O5 Ce1 Ce15 . . . 171.7(2) no
O5 Ce1 Ce30 . . . 112.0(2) no
O5 Ce1 Ce40 . . . 126.3(2) no
O5 Ce1 O34 . . . 72.4(3) no
O5 Ce1 O64 . . . 77.5(3) no
O5 Ce1 O73 . . . 75.4(3) no
O34 Ce1 Ce8 . . . 71.8(2) no
O34 Ce1 Ce15 . . . 115.7(2) no
O34 Ce1 Ce30 . . . 157.8(2) no
O34 Ce1 Ce40 . . . 71.2(2) no
O34 Ce1 O73 . . . 127.3(3) no
O35 Ce1 Ce8 . . . 109.1(2) no
O35 Ce1 Ce15 . . . 82.8(2) no
O35 Ce1 Ce30 . . . 82.6(2) no
O35 Ce1 Ce40 . . . 31.5(2) no
O35 Ce1 O5 . . . 101.3(3) no
O35 Ce1 O34 . . . 75.2(3) no
O35 Ce1 O36 . . . 139.5(3) no
O35 Ce1 O64 . . . 68.9(3) no
O35 Ce1 O72 . . . 72.4(3) no
O35 Ce1 O73 . . . 152.5(3) no
O36 Ce1 Ce8 . . . 33.1(2) no
O36 Ce1 Ce15 . . . 83.4(2) no
O36 Ce1 Ce30 . . . 122.2(2) no
O36 Ce1 Ce40 . . . 110.8(2) no
O36 Ce1 O5 . . . 97.7(3) no
O36 Ce1 O34 . . . 77.0(3) no
O36 Ce1 O64 . . . 150.9(3) no
O36 Ce1 O72 . . . 73.2(3) no
O36 Ce1 O73 . . . 67.2(3) no
O64 Ce1 Ce8 . . . 157.2(2) no
O64 Ce1 Ce15 . . . 97.6(2) no
O64 Ce1 Ce30 . . . 40.4(2) no
O64 Ce1 Ce40 . . . 94.4(2) no
O64 Ce1 O34 . . . 126.7(3) no
O64 Ce1 O73 . . . 83.9(3) no
O67 Ce1 Ce8 . . . 87.5(2) no
O67 Ce1 Ce15 . . . 33.9(2) no
O67 Ce1 Ce30 . . . 29.8(2) no
O67 Ce1 Ce40 . . . 82.7(2) no
O67 Ce1 O5 . . . 138.1(3) no
O67 Ce1 O34 . . . 149.2(3) no
O67 Ce1 O35 . . . 91.1(3) no
O67 Ce1 O36 . . . 98.1(3) no
O67 Ce1 O64 . . . 70.0(3) no
O67 Ce1 O72 . . . 72.0(3) no
O67 Ce1 O73 . . . 75.5(3) no
O72 Ce1 Ce8 . . . 40.3(2) no
O72 Ce1 Ce15 . . . 38.1(2) no
O72 Ce1 Ce30 . . . 96.5(2) no
O72 Ce1 Ce40 . . . 41.1(2) no
O72 Ce1 O5 . . . 150.0(3) no
O72 Ce1 O34 . . . 77.6(3) no
O72 Ce1 O64 . . . 124.0(3) no
O72 Ce1 O73 . . . 123.5(3) no
O73 Ce1 Ce8 . . . 94.4(2) no
O73 Ce1 Ce15 . . . 97.6(2) no
O73 Ce1 Ce30 . . . 73.8(2) no
O73 Ce1 Ce40 . . . 157.3(2) no
Ce5 Ce2 Ce6 . . . 89.43(2) no
Ce5 Ce2 Ce29 . . . 59.83(2) no
Ce5 Ce2 Ce38 . . . 60.51(2) no
Ce29 Ce2 Ce6 . . . 58.05(2) no
Ce38 Ce2 Ce6 . . . 135.69(3) no
Ce38 Ce2 Ce29 . . . 78.14(2) no
O4 Ce2 Ce5 . . . 100.3(2) no
O4 Ce2 Ce6 . . . 38.4(2) no
O4 Ce2 Ce29 . . . 94.9(2) no
O4 Ce2 Ce38 . . . 160.6(2) no
O4 Ce2 O37 . . . 85.3(3) no
O4 Ce2 O187 . . . 124.5(3) no
O4 Ce2 O291 . . . 79.4(4) no
O25 Ce2 Ce5 . . . 34.2(2) no
O25 Ce2 Ce6 . . . 82.9(3) no
O25 Ce2 Ce29 . . . 84.4(3) no
O25 Ce2 Ce38 . . . 86.8(2) no
O25 Ce2 O4 . . . 74.3(3) no
O25 Ce2 O37 . . . 75.1(3) no
O25 Ce2 O42 . . . 94.5(4) no
O25 Ce2 O45 . . . 96.8(4) no
O25 Ce2 O76 . . . 72.9(3) no
O25 Ce2 O187 . . . 151.3(3) no
O25 Ce2 O291 . . . 139.5(3) no
O37 Ce2 Ce5 . . . 99.1(2) no
O37 Ce2 Ce6 . . . 123.5(2) no
O37 Ce2 Ce29 . . . 158.6(2) no
O37 Ce2 Ce38 . . . 94.7(2) no
O42 Ce2 Ce5 . . . 83.1(2) no
O42 Ce2 Ce6 . . . 31.1(2) no
O42 Ce2 Ce29 . . . 31.2(2) no
O42 Ce2 Ce38 . . . 108.1(2) no
O42 Ce2 O4 . . . 69.4(3) no
O42 Ce2 O37 . . . 154.5(3) no
O42 Ce2 O45 . . . 139.1(3) no
O42 Ce2 O76 . . . 72.0(3) no
O42 Ce2 O187 . . . 75.8(3) no
O42 Ce2 O291 . . . 104.5(4) no
O45 Ce2 Ce5 . . . 84.6(2) no
O45 Ce2 Ce6 . . . 169.6(2) no
O45 Ce2 Ce29 . . . 111.5(2) no
O45 Ce2 Ce38 . . . 34.1(2) no
O45 Ce2 O4 . . . 151.4(3) no
O45 Ce2 O37 . . . 66.1(3) no
O45 Ce2 O76 . . . 74.2(3) no
O45 Ce2 O187 . . . 75.6(3) no
O45 Ce2 O291 . . . 91.7(4) no
O76 Ce2 Ce5 . . . 38.7(2) no
O76 Ce2 Ce6 . . . 95.9(2) no
O76 Ce2 Ce29 . . . 40.8(2) no
O76 Ce2 Ce38 . . . 40.2(2) no
O76 Ce2 O4 . . . 126.2(3) no
O76 Ce2 O37 . . . 124.5(3) no
O76 Ce2 O187 . . . 78.4(3) no
O76 Ce2 O291 . . . 147.0(3) no
O187 Ce2 Ce5 . . . 117.1(2) no
O187 Ce2 Ce6 . . . 99.7(2) no
O187 Ce2 Ce29 . . . 73.3(3) no
O187 Ce2 Ce38 . . . 71.3(2) no
O187 Ce2 O37 . . . 123.8(3) no
O291 Ce2 Ce5 . . . 171.6(3) no
O291 Ce2 Ce6 . . . 95.2(3) no
O291 Ce2 Ce29 . . . 128.6(3) no
O291 Ce2 Ce38 . . . 119.2(3) no
O291 Ce2 O37 . . . 72.5(3) no
O291 Ce2 O187 . . . 69.1(4) no
Ce2 Ce3 Ce6 . . . 59.47(2) no
Ce10 Ce3 Ce2 . . . 86.93(2) no
Ce10 Ce3 Ce6 . . . 56.03(2) no
O4 Ce3 Ce2 . . . 37.70(18) no
O4 Ce3 Ce6 . . . 38.9(2) no
O4 Ce3 Ce10 . . . 91.3(2) no
O25 Ce3 Ce2 . . . 29.3(2) no
O25 Ce3 Ce6 . . . 79.9(2) no
O25 Ce3 Ce10 . . . 81.2(2) no
O25 Ce3 O4 . . . 66.9(3) no
O25 Ce3 O32 . . . 80.0(3) no
O25 Ce3 O43 . . . 69.1(3) no
O25 Ce3 O107 . . . 139.6(4) no
O25 Ce3 O134 . . . 77.5(3) no
O25 Ce3 O156 . . . 134.5(3) no
O25 Ce3 O377 . . . 134.9(4) no
O32 Ce3 Ce2 . . . 106.6(2) no
O32 Ce3 Ce6 . . . 153.4(2) no
O32 Ce3 Ce10 . . . 103.6(2) no
O32 Ce3 O4 . . . 141.1(3) no
O32 Ce3 O43 . . . 67.4(3) no
O32 Ce3 O377 . . . 68.6(3) no
O43 Ce3 Ce2 . . . 90.9(2) no
O43 Ce3 Ce6 . . . 89.20(19) no
O43 Ce3 Ce10 . . . 36.92(19) no
O43 Ce3 O4 . . . 115.4(3) no
O53 Ce3 Ce2 . . . 80.2(2) no
O53 Ce3 Ce6 . . . 29.6(2) no
O53 Ce3 Ce10 . . . 29.7(2) no
O53 Ce3 O4 . . . 68.3(3) no
O53 Ce3 O25 . . . 89.5(3) no
O53 Ce3 O32 . . . 133.3(3) no
O53 Ce3 O43 . . . 66.4(3) no
O53 Ce3 O107 . . . 77.1(3) no
O53 Ce3 O134 . . . 140.3(3) no
O53 Ce3 O156 . . . 80.8(3) no
O53 Ce3 O377 . . . 135.6(3) no
O107 Ce3 Ce2 . . . 155.1(3) no
O107 Ce3 Ce6 . . . 102.4(3) no
O107 Ce3 Ce10 . . . 68.2(3) no
O107 Ce3 O4 . . . 136.5(3) no
O107 Ce3 O32 . . . 82.2(4) no
O107 Ce3 O43 . . . 70.6(3) no
O107 Ce3 O134 . . . 134.8(3) no
O107 Ce3 O156 . . . 81.2(4) no
O107 Ce3 O377 . . . 68.0(4) no
O134 Ce3 Ce2 . . . 70.1(2) no
O134 Ce3 Ce6 . . . 110.7(3) no
O134 Ce3 Ce10 . . . 156.9(2) no
O134 Ce3 O4 . . . 72.1(3) no
O134 Ce3 O32 . . . 81.5(3) no
O134 Ce3 O43 . . . 137.3(3) no
O134 Ce3 O156 . . . 82.3(3) no
O134 Ce3 O377 . . . 66.8(3) no
O156 Ce3 Ce2 . . . 105.3(2) no
O156 Ce3 Ce6 . . . 69.9(2) no
O156 Ce3 Ce10 . . . 106.9(2) no
O156 Ce3 O4 . . . 68.2(3) no
O156 Ce3 O32 . . . 136.5(3) no
O156 Ce3 O43 . . . 140.4(3) no
O156 Ce3 O377 . . . 67.9(3) no
O377 Ce3 Ce2 . . . 136.9(2) no
O377 Ce3 Ce6 . . . 137.7(3) no
O377 Ce3 Ce10 . . . 136.2(2) no
O377 Ce3 O4 . . . 122.5(3) no
O377 Ce3 O43 . . . 122.2(3) no
Ce8 Ce4 Ce27 . . . 118.92(3) no
Ce8 Ce4 Ce33 . . . 78.66(2) no
Ce11 Ce4 Ce8 . . . 60.38(2) no
Ce11 Ce4 Ce27 . . . 62.30(2) no
Ce11 Ce4 Ce33 . . . 60.45(2) no
Ce33 Ce4 Ce27 . . . 90.86(2) no
O3 Ce4 Ce8 . . . 108.64(19) no
O3 Ce4 Ce11 . . . 83.9(2) no
O3 Ce4 Ce27 . . . 84.2(2) no
O3 Ce4 Ce33 . . . 31.3(2) no
O3 Ce4 O16 . . . 74.1(3) no
O3 Ce4 O29 . . . 73.3(3) no
O3 Ce4 O73 . . . 153.6(3) no
O3 Ce4 O98 . . . 106.7(3) no
O3 Ce4 O220 . . . 70.4(3) no
O16 Ce4 Ce8 . . . 73.1(2) no
O16 Ce4 Ce11 . . . 117.9(2) no
O16 Ce4 Ce27 . . . 157.9(2) no
O16 Ce4 Ce33 . . . 72.6(2) no
O16 Ce4 O73 . . . 124.5(3) no
O16 Ce4 O98 . . . 70.2(3) no
O29 Ce4 Ce8 . . . 39.54(19) no
O29 Ce4 Ce11 . . . 38.6(2) no
O29 Ce4 Ce27 . . . 98.40(19) no
O29 Ce4 Ce33 . . . 42.0(2) no
O29 Ce4 O16 . . . 79.4(3) no
O29 Ce4 O73 . . . 125.0(3) no
O29 Ce4 O98 . . . 147.8(3) no
O29 Ce4 O220 . . . 126.7(3) no
O36 Ce4 Ce8 . . . 33.32(19) no
O36 Ce4 Ce11 . . . 84.7(2) no
O36 Ce4 Ce27 . . . 124.6(3) no
O36 Ce4 Ce33 . . . 110.9(2) no
O36 Ce4 O3 . . . 138.1(3) no
O36 Ce4 O16 . . . 76.1(3) no
O36 Ce4 O29 . . . 72.8(3) no
O36 Ce4 O73 . . . 68.3(3) no
O36 Ce4 O98 . . . 89.8(3) no
O36 Ce4 O220 . . . 151.4(3) no
O73 Ce4 Ce8 . . . 95.66(18) no
O73 Ce4 Ce11 . . . 99.9(2) no
O73 Ce4 Ce27 . . . 74.9(2) no
O73 Ce4 Ce33 . . . 159.9(2) no
O98 Ce4 Ce8 . . . 118.1(2) no
O98 Ce4 Ce11 . . . 168.5(2) no
O98 Ce4 Ce27 . . . 113.7(2) no
O98 Ce4 Ce33 . . . 131.0(2) no
O98 Ce4 O73 . . . 68.7(3) no
O102 Ce4 Ce8 . . . 87.2(2) no
O102 Ce4 Ce11 . . . 34.4(2) no
O102 Ce4 Ce27 . . . 31.7(2) no
O102 Ce4 Ce33 . . . 84.5(2) no
O102 Ce4 O3 . . . 94.7(3) no
O102 Ce4 O16 . . . 152.1(3) no
O102 Ce4 O29 . . . 72.9(3) no
O102 Ce4 O36 . . . 98.2(3) no
O102 Ce4 O73 . . . 75.9(3) no
O102 Ce4 O98 . . . 137.6(3) no
O102 Ce4 O220 . . . 72.6(3) no
O220 Ce4 Ce8 . . . 159.5(3) no
O220 Ce4 Ce11 . . . 99.5(3) no
O220 Ce4 Ce27 . . . 41.0(3) no
O220 Ce4 Ce33 . . . 95.4(2) no
O220 Ce4 O16 . . . 124.3(3) no
O220 Ce4 O73 . . . 83.2(3) no
O220 Ce4 O98 . . . 80.6(3) no
Ce2 Ce5 Ce10 . . . 90.75(2) no
Ce2 Ce5 Ce29 . . . 61.71(2) no
Ce2 Ce5 Ce38 . . . 60.43(2) no
Ce29 Ce5 Ce10 . . . 59.47(2) no
Ce29 Ce5 Ce38 . . . 78.97(2) no
Ce38 Ce5 Ce10 . . . 137.70(3) no
O21 Ce5 Ce2 . . . 84.9(2) no
O21 Ce5 Ce10 . . . 31.3(2) no
O21 Ce5 Ce29 . . . 32.2(2) no
O21 Ce5 Ce38 . . . 110.2(2) no
O21 Ce5 O43 . . . 67.7(3) no
O21 Ce5 O57 . . . 152.3(3) no
O21 Ce5 O76 . . . 74.2(3) no
O21 Ce5 O239 . . . 74.1(3) no
O21 Ce5 O295 . . . 98.8(4) no
O25 Ce5 Ce2 . . . 33.3(2) no
O25 Ce5 Ce10 . . . 83.3(3) no
O25 Ce5 Ce29 . . . 85.4(3) no
O25 Ce5 Ce38 . . . 86.1(2) no
O25 Ce5 O21 . . . 95.1(3) no
O25 Ce5 O43 . . . 74.3(3) no
O25 Ce5 O57 . . . 75.2(3) no
O25 Ce5 O76 . . . 72.0(3) no
O25 Ce5 O178 . . . 97.5(3) no
O25 Ce5 O239 . . . 148.2(3) no
O25 Ce5 O295 . . . 142.0(4) no
O43 Ce5 Ce2 . . . 99.5(2) no
O43 Ce5 Ce10 . . . 36.4(2) no
O43 Ce5 Ce29 . . . 94.3(2) no
O43 Ce5 Ce38 . . . 159.7(2) no
O43 Ce5 O57 . . . 84.6(3) no
O43 Ce5 O239 . . . 125.1(3) no
O57 Ce5 Ce2 . . . 98.9(2) no
O57 Ce5 Ce10 . . . 121.0(2) no
O57 Ce5 Ce29 . . . 160.2(2) no
O57 Ce5 Ce38 . . . 95.2(2) no
O76 Ce5 Ce2 . . . 38.6(2) no
O76 Ce5 Ce10 . . . 97.9(2) no
O76 Ce5 Ce29 . . . 42.1(2) no
O76 Ce5 Ce38 . . . 40.1(2) no
O76 Ce5 O43 . . . 125.5(3) no
O76 Ce5 O57 . . . 124.7(3) no
O76 Ce5 O239 . . . 76.4(3) no
O76 Ce5 O295 . . . 146.0(4) no
O178 Ce5 Ce2 . . . 85.2(2) no
O178 Ce5 Ce10 . . . 171.1(2) no
O178 Ce5 Ce29 . . . 111.7(2) no
O178 Ce5 Ce38 . . . 34.0(2) no
O178 Ce5 O21 . . . 140.1(3) no
O178 Ce5 O43 . . . 152.2(3) no
O178 Ce5 O57 . . . 67.6(3) no
O178 Ce5 O76 . . . 74.0(3) no
O178 Ce5 O239 . . . 75.4(3) no
O178 Ce5 O295 . . . 94.1(4) no
O239 Ce5 Ce2 . . . 115.0(2) no
O239 Ce5 Ce10 . . . 99.3(3) no
O239 Ce5 Ce29 . . . 69.4(2) no
O239 Ce5 Ce38 . . . 70.7(2) no
O239 Ce5 O57 . . . 126.8(3) no
O295 Ce5 Ce2 . . . 174.8(3) no
O295 Ce5 Ce10 . . . 90.6(3) no
O295 Ce5 Ce29 . . . 123.2(3) no
O295 Ce5 Ce38 . . . 121.0(3) no
O295 Ce5 O43 . . . 78.7(4) no
O295 Ce5 O57 . . . 76.1(4) no
O295 Ce5 O239 . . . 69.8(4) no
Ce10 Ce6 Ce2 . . . 90.55(2) no
Ce10 Ce6 Ce20 . . . 60.27(2) no
Ce10 Ce6 Ce29 . . . 61.32(2) no
Ce20 Ce6 Ce2 . . . 137.53(3) no
Ce20 Ce6 Ce29 . . . 78.67(2) no
Ce29 Ce6 Ce2 . . . 59.62(2) no
O2 Ce6 Ce2 . . . 171.3(2) no
O2 Ce6 Ce10 . . . 84.1(2) no
O2 Ce6 Ce20 . . . 33.9(2) no
O2 Ce6 Ce29 . . . 111.7(2) no
O2 Ce6 O4 . . . 150.6(3) no
O2 Ce6 O23 . . . 73.5(3) no
O2 Ce6 O42 . . . 141.3(3) no
O2 Ce6 O112 . . . 65.9(3) no
O2 Ce6 O123 . . . 93.4(4) no
O2 Ce6 O213 . . . 76.8(3) no
O4 Ce6 Ce2 . . . 37.24(19) no
O4 Ce6 Ce10 . . . 99.9(2) no
O4 Ce6 Ce20 . . . 159.8(2) no
O4 Ce6 Ce29 . . . 95.31(19) no
O4 Ce6 O112 . . . 84.7(3) no
O4 Ce6 O213 . . . 125.4(3) no
O23 Ce6 Ce2 . . . 98.0(2) no
O23 Ce6 Ce10 . . . 38.9(2) no
O23 Ce6 Ce20 . . . 39.8(2) no
O23 Ce6 Ce29 . . . 41.9(2) no
O23 Ce6 O4 . . . 126.5(3) no
O23 Ce6 O112 . . . 123.4(3) no
O23 Ce6 O213 . . . 76.5(3) no
O42 Ce6 Ce2 . . . 30.8(2) no
O42 Ce6 Ce10 . . . 84.9(2) no
O42 Ce6 Ce20 . . . 110.6(2) no
O42 Ce6 Ce29 . . . 32.9(2) no
O42 Ce6 O4 . . . 68.0(3) no
O42 Ce6 O23 . . . 74.7(3) no
O42 Ce6 O112 . . . 152.6(3) no
O42 Ce6 O123 . . . 101.0(4) no
O42 Ce6 O213 . . . 74.8(3) no
O53 Ce6 Ce2 . . . 82.0(2) no
O53 Ce6 Ce10 . . . 33.7(2) no
O53 Ce6 Ce20 . . . 86.8(2) no
O53 Ce6 Ce29 . . . 84.7(2) no
O53 Ce6 O2 . . . 97.0(3) no
O53 Ce6 O4 . . . 73.4(3) no
O53 Ce6 O23 . . . 72.5(3) no
O53 Ce6 O42 . . . 94.0(3) no
O53 Ce6 O112 . . . 75.0(3) no
O53 Ce6 O123 . . . 140.9(3) no
O53 Ce6 O213 . . . 148.8(3) no
O112 Ce6 Ce2 . . . 121.79(19) no
O112 Ce6 Ce10 . . . 97.80(19) no
O112 Ce6 Ce20 . . . 94.1(2) no
O112 Ce6 Ce29 . . . 158.88(19) no
O123 Ce6 Ce2 . . . 92.7(3) no
O123 Ce6 Ce10 . . . 173.0(3) no
O123 Ce6 Ce20 . . . 120.1(3) no
O123 Ce6 Ce29 . . . 125.6(3) no
O123 Ce6 O4 . . . 79.2(4) no
O123 Ce6 O23 . . . 146.3(3) no
O123 Ce6 O112 . . . 75.2(3) no
O123 Ce6 O213 . . . 70.3(4) no
O213 Ce6 Ce2 . . . 99.5(2) no
O213 Ce6 Ce10 . . . 115.3(3) no
O213 Ce6 Ce20 . . . 71.0(3) no
O213 Ce6 Ce29 . . . 70.0(2) no
O213 Ce6 O112 . . . 126.7(3) no
Ce20 Ce7 Ce49 . . . 136.25(3) no
Ce20 Ce7 Ce63 . . . 78.42(2) no
Ce21 Ce7 Ce20 . . . 60.39(2) no
Ce21 Ce7 Ce49 . . . 89.86(2) no
Ce21 Ce7 Ce63 . . . 60.58(2) no
Ce63 Ce7 Ce49 . . . 58.43(2) no
O12 Ce7 Ce20 . . . 40.17(19) no
O12 Ce7 Ce21 . . . 38.8(2) no
O12 Ce7 Ce49 . . . 96.41(19) no
O12 Ce7 Ce63 . . . 41.15(19) no
O12 Ce7 O100 . . . 125.2(3) no
O12 Ce7 O168 . . . 125.4(3) no
O12 Ce7 O195 . . . 147.8(3) no
O12 Ce7 O241 . . . 77.9(3) no
O44 Ce7 Ce20 . . . 87.6(2) no
O44 Ce7 Ce21 . . . 33.9(2) no
O44 Ce7 Ce49 . . . 81.2(2) no
O44 Ce7 Ce63 . . . 83.5(2) no
O44 Ce7 O12 . . . 72.6(3) no
O44 Ce7 O89 . . . 93.3(3) no
O44 Ce7 O100 . . . 72.5(3) no
O44 Ce7 O168 . . . 76.6(3) no
O44 Ce7 O195 . . . 139.3(3) no
O44 Ce7 O241 . . . 150.3(4) no
O50 Ce7 Ce20 . . . 33.5(2) no
O50 Ce7 Ce21 . . . 84.4(2) no
O50 Ce7 Ce49 . . . 169.4(2) no
O50 Ce7 Ce63 . . . 111.0(2) no
O50 Ce7 O12 . . . 73.6(3) no
O50 Ce7 O44 . . . 98.7(3) no
O50 Ce7 O89 . . . 138.7(3) no
O50 Ce7 O100 . . . 152.5(3) no
O50 Ce7 O168 . . . 67.8(3) no
O50 Ce7 O195 . . . 99.3(3) no
O50 Ce7 O241 . . . 75.9(4) no
O89 Ce7 Ce20 . . . 108.7(3) no
O89 Ce7 Ce21 . . . 84.0(3) no
O89 Ce7 Ce49 . . . 31.3(2) no
O89 Ce7 Ce63 . . . 31.5(3) no
O89 Ce7 O12 . . . 72.7(3) no
O89 Ce7 O100 . . . 68.6(3) no
O89 Ce7 O168 . . . 153.3(3) no
O89 Ce7 O195 . . . 96.6(4) no
O89 Ce7 O241 . . . 74.4(4) no
O100 Ce7 Ce20 . . . 159.6(2) no
O100 Ce7 Ce21 . . . 99.3(2) no
O100 Ce7 Ce49 . . . 37.4(2) no
O100 Ce7 Ce63 . . . 94.2(2) no
O100 Ce7 O168 . . . 84.7(3) no
O100 Ce7 O241 . . . 124.4(3) no
O168 Ce7 Ce20 . . . 95.6(2) no
O168 Ce7 Ce21 . . . 99.4(2) no
O168 Ce7 Ce49 . . . 122.1(2) no
O168 Ce7 Ce63 . . . 159.6(2) no
O195 Ce7 Ce20 . . . 125.4(2) no
O195 Ce7 Ce21 . . . 173.2(2) no
O195 Ce7 Ce49 . . . 87.3(2) no
O195 Ce7 Ce63 . . . 122.5(3) no
O195 Ce7 O100 . . . 74.7(3) no
O195 Ce7 O168 . . . 77.0(3) no
O195 Ce7 O241 . . . 70.0(4) no
O241 Ce7 Ce20 . . . 71.7(3) no
O241 Ce7 Ce21 . . . 116.6(3) no
O241 Ce7 Ce49 . . . 98.9(3) no
O241 Ce7 Ce63 . . . 71.8(3) no
O241 Ce7 O168 . . . 125.3(3) no
Ce4 Ce8 Ce1 . . . 65.93(2) no
Ce4 Ce8 Ce11 . . . 59.38(2) no
Ce4 Ce8 Ce15 . . . 93.96(2) no
Ce11 Ce8 Ce1 . . . 95.52(2) no
Ce15 Ce8 Ce1 . . . 59.61(2) no
Ce15 Ce8 Ce11 . . . 65.70(2) no
O11 Ce8 Ce1 . . . 111.04(19) no
O11 Ce8 Ce4 . . . 76.8(2) no
O11 Ce8 Ce11 . . . 112.6(2) no
O11 Ce8 Ce15 . . . 169.4(2) no
O29 Ce8 Ce1 . . . 101.54(18) no
O29 Ce8 Ce4 . . . 38.40(17) no
O29 Ce8 Ce11 . . . 38.19(19) no
O29 Ce8 Ce15 . . . 100.7(2) no
O29 Ce8 O11 . . . 75.4(3) no
O29 Ce8 O72 . . . 128.4(3) no
O29 Ce8 O127 . . . 75.8(3) no
O29 Ce8 O185 . . . 137.1(3) no
O30 Ce8 Ce1 . . . 85.0(2) no
O30 Ce8 Ce4 . . . 83.6(2) no
O30 Ce8 Ce11 . . . 33.9(2) no
O30 Ce8 Ce15 . . . 34.8(2) no
O30 Ce8 O11 . . . 146.0(3) no
O30 Ce8 O29 . . . 72.0(3) no
O30 Ce8 O72 . . . 73.1(3) no
O30 Ce8 O127 . . . 90.0(4) no
O30 Ce8 O160 . . . 145.6(3) no
O30 Ce8 O185 . . . 85.5(3) no
O36 Ce8 Ce1 . . . 34.5(2) no
O36 Ce8 Ce4 . . . 34.6(2) no
O36 Ce8 Ce11 . . . 84.8(2) no
O36 Ce8 Ce15 . . . 84.1(3) no
O36 Ce8 O11 . . . 85.3(3) no
O36 Ce8 O29 . . . 73.0(3) no
O36 Ce8 O30 . . . 94.2(3) no
O36 Ce8 O72 . . . 73.1(3) no
O36 Ce8 O127 . . . 145.4(3) no
O36 Ce8 O160 . . . 88.0(3) no
O36 Ce8 O185 . . . 146.6(3) no
O72 Ce8 Ce1 . . . 38.73(19) no
O72 Ce8 Ce4 . . . 101.30(19) no
O72 Ce8 Ce11 . . . 101.3(2) no
O72 Ce8 Ce15 . . . 38.3(2) no
O72 Ce8 O11 . . . 137.7(3) no
O127 Ce8 Ce1 . . . 174.9(3) no
O127 Ce8 Ce4 . . . 112.4(2) no
O127 Ce8 Ce11 . . . 79.7(2) no
O127 Ce8 Ce15 . . . 116.3(3) no
O127 Ce8 O11 . . . 72.7(3) no
O127 Ce8 O72 . . . 140.3(3) no
O127 Ce8 O185 . . . 68.0(3) no
O160 Ce8 Ce1 . . . 77.5(2) no
O160 Ce8 Ce4 . . . 114.7(2) no
O160 Ce8 Ce11 . . . 172.6(2) no
O160 Ce8 Ce15 . . . 111.8(2) no
O160 Ce8 O11 . . . 68.4(3) no
O160 Ce8 O29 . . . 140.3(3) no
O160 Ce8 O72 . . . 74.8(3) no
O160 Ce8 O127 . . . 107.4(3) no
O160 Ce8 O185 . . . 74.5(4) no
O185 Ce8 Ce1 . . . 112.6(2) no
O185 Ce8 Ce4 . . . 169.1(3) no
O185 Ce8 Ce11 . . . 110.9(3) no
O185 Ce8 Ce15 . . . 76.7(2) no
O185 Ce8 O11 . . . 113.0(3) no
O185 Ce8 O72 . . . 74.9(3) no
Ce31 Ce9 Ce22 . . . 61.58(2) no
Ce31 Ce9 Ce38 . . . 60.38(2) no
Ce31 Ce9 Ce66 . . . 60.26(2) no
Ce38 Ce9 Ce22 . . . 118.33(3) no
Ce38 Ce9 Ce66 . . . 78.41(2) no
Ce66 Ce9 Ce22 . . . 90.32(2) no
O14 Ce9 Ce22 . . . 41.6(2) no
O14 Ce9 Ce31 . . . 98.9(2) no
O14 Ce9 Ce38 . . . 159.1(2) no
O14 Ce9 Ce66 . . . 93.8(2) no
O14 Ce9 O37 . . . 84.8(3) no
O14 Ce9 O197 . . . 123.3(4) no
O14 Ce9 O262 . . . 74.6(4) no
O37 Ce9 Ce22 . . . 74.6(2) no
O37 Ce9 Ce31 . . . 99.0(2) no
O37 Ce9 Ce38 . . . 95.5(2) no
O37 Ce9 Ce66 . . . 158.8(2) no
O45 Ce9 Ce22 . . . 123.5(2) no
O45 Ce9 Ce31 . . . 84.2(2) no
O45 Ce9 Ce38 . . . 33.4(2) no
O45 Ce9 Ce66 . . . 111.0(2) no
O45 Ce9 O14 . . . 152.5(3) no
O45 Ce9 O37 . . . 67.8(3) no
O45 Ce9 O169 . . . 139.3(3) no
O45 Ce9 O197 . . . 77.3(4) no
O45 Ce9 O202 . . . 74.0(3) no
O45 Ce9 O262 . . . 99.9(4) no
O96 Ce9 Ce22 . . . 31.3(2) no
O96 Ce9 Ce31 . . . 34.0(2) no
O96 Ce9 Ce38 . . . 87.0(2) no
O96 Ce9 Ce66 . . . 84.0(3) no
O96 Ce9 O14 . . . 72.8(3) no
O96 Ce9 O37 . . . 75.4(3) no
O96 Ce9 O45 . . . 97.5(4) no
O96 Ce9 O169 . . . 93.1(4) no
O96 Ce9 O197 . . . 151.4(3) no
O96 Ce9 O202 . . . 72.1(3) no
O96 Ce9 O262 . . . 138.7(4) no
O169 Ce9 Ce22 . . . 82.6(3) no
O169 Ce9 Ce31 . . . 83.1(3) no
O169 Ce9 Ce38 . . . 109.0(3) no
O169 Ce9 Ce66 . . . 31.5(3) no
O169 Ce9 O14 . . . 67.9(3) no
O169 Ce9 O37 . . . 152.5(4) no
O169 Ce9 O197 . . . 74.9(4) no
O169 Ce9 O202 . . . 72.2(4) no
O169 Ce9 O262 . . . 97.5(4) no
O197 Ce9 Ce22 . . . 157.3(3) no
O197 Ce9 Ce31 . . . 117.6(3) no
O197 Ce9 Ce38 . . . 73.1(3) no
O197 Ce9 Ce66 . . . 72.2(3) no
O197 Ce9 O37 . . . 125.8(3) no
O202 Ce9 Ce22 . . . 96.8(2) no
O202 Ce9 Ce31 . . . 38.1(2) no
O202 Ce9 Ce38 . . . 40.7(2) no
O202 Ce9 Ce66 . . . 40.8(2) no
O202 Ce9 O14 . . . 124.2(3) no
O202 Ce9 O37 . . . 125.1(3) no
O202 Ce9 O197 . . . 79.5(3) no
O202 Ce9 O262 . . . 149.0(4) no
O262 Ce9 Ce22 . . . 111.1(3) no
O262 Ce9 Ce31 . . . 172.5(3) no
O262 Ce9 Ce38 . . . 125.9(3) no
O262 Ce9 Ce66 . . . 123.0(3) no
O262 Ce9 O37 . . . 77.0(4) no
O262 Ce9 O197 . . . 69.6(4) no
Ce6 Ce10 Ce5 . . . 89.23(2) no
Ce6 Ce10 Ce20 . . . 60.34(2) no
Ce6 Ce10 Ce29 . . . 59.93(2) no
Ce20 Ce10 Ce5 . . . 135.51(3) no
Ce20 Ce10 Ce29 . . . 78.06(2) no
Ce29 Ce10 Ce5 . . . 58.03(2) no
O21 Ce10 Ce5 . . . 31.0(2) no
O21 Ce10 Ce6 . . . 82.8(2) no
O21 Ce10 Ce20 . . . 108.0(2) no
O21 Ce10 Ce29 . . . 31.1(2) no
O21 Ce10 O23 . . . 72.0(3) no
O21 Ce10 O43 . . . 69.3(3) no
O21 Ce10 O50 . . . 139.2(3) no
O21 Ce10 O168 . . . 154.7(3) no
O21 Ce10 O183 . . . 105.7(4) no
O21 Ce10 O240 . . . 74.3(3) no
O23 Ce10 Ce5 . . . 96.0(2) no
O23 Ce10 Ce6 . . . 38.9(2) no
O23 Ce10 Ce20 . . . 39.8(2) no
O23 Ce10 Ce29 . . . 40.9(2) no
O23 Ce10 O43 . . . 126.0(3) no
O23 Ce10 O168 . . . 125.0(3) no
O23 Ce10 O183 . . . 148.6(4) no
O23 Ce10 O240 . . . 78.8(3) no
O43 Ce10 Ce5 . . . 38.4(2) no
O43 Ce10 Ce6 . . . 99.7(2) no
O43 Ce10 Ce20 . . . 159.8(2) no
O43 Ce10 Ce29 . . . 94.8(2) no
O43 Ce10 O168 . . . 85.5(3) no
O43 Ce10 O183 . . . 78.7(4) no
O43 Ce10 O240 . . . 123.0(3) no
O50 Ce10 Ce5 . . . 169.7(2) no
O50 Ce10 Ce6 . . . 84.9(2) no
O50 Ce10 Ce20 . . . 34.4(2) no
O50 Ce10 Ce29 . . . 111.6(2) no
O50 Ce10 O23 . . . 74.1(3) no
O50 Ce10 O43 . . . 151.3(3) no
O50 Ce10 O168 . . . 65.9(3) no
O50 Ce10 O183 . . . 91.8(4) no
O50 Ce10 O240 . . . 77.5(3) no
O53 Ce10 Ce5 . . . 81.7(2) no
O53 Ce10 Ce6 . . . 33.9(2) no
O53 Ce10 Ce20 . . . 87.1(2) no
O53 Ce10 Ce29 . . . 83.6(2) no
O53 Ce10 O21 . . . 93.1(3) no
O53 Ce10 O23 . . . 72.8(3) no
O53 Ce10 O43 . . . 73.3(3) no
O53 Ce10 O50 . . . 97.9(3) no
O53 Ce10 O168 . . . 76.9(3) no
O53 Ce10 O183 . . . 138.0(4) no
O53 Ce10 O240 . . . 151.3(3) no
O168 Ce10 Ce5 . . . 123.7(2) no
O168 Ce10 Ce6 . . . 99.8(2) no
O168 Ce10 Ce20 . . . 94.8(2) no
O168 Ce10 Ce29 . . . 159.6(2) no
O183 Ce10 Ce5 . . . 95.4(3) no
O183 Ce10 Ce6 . . . 169.9(3) no
O183 Ce10 Ce20 . . . 120.3(3) no
O183 Ce10 Ce29 . . . 130.0(3) no
O183 Ce10 O168 . . . 70.1(3) no
O183 Ce10 O240 . . . 70.7(4) no
O240 Ce10 Ce5 . . . 97.8(2) no
O240 Ce10 Ce6 . . . 117.6(3) no
O240 Ce10 Ce20 . . . 73.1(3) no
O240 Ce10 Ce29 . . . 72.3(2) no
O240 Ce10 O168 . . . 124.3(3) no
Ce4 Ce11 Ce8 . . . 60.24(2) no
Ce4 Ce11 Ce12 . . . 89.55(2) no
Ce4 Ce11 Ce33 . . . 60.87(2) no
Ce8 Ce11 Ce12 . . . 136.83(3) no
Ce8 Ce11 Ce33 . . . 78.79(2) no
Ce33 Ce11 Ce12 . . . 58.90(2) no
O17 Ce11 Ce4 . . . 84.4(2) no
O17 Ce11 Ce8 . . . 108.8(2) no
O17 Ce11 Ce12 . . . 32.5(2) no
O17 Ce11 Ce33 . . . 31.3(2) no
O17 Ce11 O29 . . . 73.6(3) no
O17 Ce11 O54 . . . 69.8(3) no
O17 Ce11 O79 . . . 74.3(4) no
O17 Ce11 O106 . . . 154.0(3) no
O17 Ce11 O284 . . . 100.6(4) no
O29 Ce11 Ce4 . . . 38.69(18) no
O29 Ce11 Ce8 . . . 39.42(19) no
O29 Ce11 Ce12 . . . 97.6(2) no
O29 Ce11 Ce33 . . . 42.3(2) no
O29 Ce11 O54 . . . 125.4(3) no
O29 Ce11 O79 . . . 77.1(3) no
O29 Ce11 O106 . . . 123.9(3) no
O29 Ce11 O284 . . . 148.4(3) no
O30 Ce11 Ce4 . . . 83.9(2) no
O30 Ce11 Ce8 . . . 33.3(2) no
O30 Ce11 Ce12 . . . 170.0(2) no
O30 Ce11 Ce33 . . . 111.2(2) no
O30 Ce11 O17 . . . 138.7(3) no
O30 Ce11 O29 . . . 72.6(3) no
O30 Ce11 O54 . . . 151.2(3) no
O30 Ce11 O79 . . . 75.6(4) no
O30 Ce11 O106 . . . 67.2(3) no
O30 Ce11 O284 . . . 95.9(4) no
O54 Ce11 Ce4 . . . 98.1(2) no
O54 Ce11 Ce8 . . . 158.0(2) no
O54 Ce11 Ce12 . . . 37.3(2) no
O54 Ce11 Ce33 . . . 94.4(2) no
O54 Ce11 O79 . . . 127.1(3) no
O54 Ce11 O106 . . . 84.2(3) no
O79 Ce11 Ce4 . . . 115.8(3) no
O79 Ce11 Ce8 . . . 70.8(3) no
O79 Ce11 Ce12 . . . 100.7(3) no
O79 Ce11 Ce33 . . . 71.4(3) no
O79 Ce11 O106 . . . 125.4(3) no
O102 Ce11 Ce4 . . . 33.7(2) no
O102 Ce11 Ce8 . . . 86.5(2) no
O102 Ce11 Ce12 . . . 81.6(2) no
O102 Ce11 Ce33 . . . 84.4(2) no
O102 Ce11 O17 . . . 94.8(3) no
O102 Ce11 O29 . . . 72.3(3) no
O102 Ce11 O30 . . . 96.8(3) no
O102 Ce11 O54 . . . 72.0(3) no
O102 Ce11 O79 . . . 149.3(3) no
O102 Ce11 O106 . . . 75.5(3) no
O102 Ce11 O284 . . . 139.2(4) no
O106 Ce11 Ce4 . . . 98.7(2) no
O106 Ce11 Ce8 . . . 94.8(2) no
O106 Ce11 Ce12 . . . 121.45(19) no
O106 Ce11 Ce33 . . . 159.2(2) no
O284 Ce11 Ce4 . . . 172.3(3) no
O284 Ce11 Ce8 . . . 122.6(3) no
O284 Ce11 Ce12 . . . 91.6(3) no
O284 Ce11 Ce33 . . . 125.9(3) no
O284 Ce11 O54 . . . 78.3(4) no
O284 Ce11 O79 . . . 71.5(4) no
O284 Ce11 O106 . . . 74.2(4) no
Ce14 Ce12 Ce27 . . . 62.70(2) no
Ce14 Ce12 Ce33 . . . 60.24(2) no
Ce14 Ce12 Ce51 . . . 60.59(2) no
Ce33 Ce12 Ce27 . . . 91.50(2) no
Ce51 Ce12 Ce27 . . . 119.38(3) no
Ce51 Ce12 Ce33 . . . 78.34(2) no
O7 Ce12 Ce14 . . . 34.1(2) no
O7 Ce12 Ce27 . . . 31.4(2) no
O7 Ce12 Ce33 . . . 83.3(2) no
O7 Ce12 Ce51 . . . 88.0(2) no
O7 Ce12 O17 . . . 94.3(3) no
O7 Ce12 O54 . . . 72.8(3) no
O7 Ce12 O91 . . . 151.0(3) no
O7 Ce12 O105 . . . 73.0(3) no
O7 Ce12 O194 . . . 98.0(3) no
O7 Ce12 O258 . . . 76.9(3) no
O7 Ce12 O376 . . . 138.6(4) no
O17 Ce12 Ce14 . . . 84.5(2) no
O17 Ce12 Ce27 . . . 85.7(3) no
O17 Ce12 Ce33 . . . 31.4(3) no
O17 Ce12 Ce51 . . . 108.1(3) no
O17 Ce12 O54 . . . 70.7(4) no
O17 Ce12 O91 . . . 72.9(4) no
O17 Ce12 O105 . . . 71.7(3) no
O17 Ce12 O258 . . . 155.3(4) no
O17 Ce12 O376 . . . 102.6(4) no
O54 Ce12 Ce14 . . . 100.2(2) no
O54 Ce12 Ce27 . . . 41.7(2) no
O54 Ce12 Ce33 . . . 95.5(2) no
O54 Ce12 Ce51 . . . 160.5(2) no
O54 Ce12 O91 . . . 123.8(3) no
O54 Ce12 O258 . . . 84.6(3) no
O54 Ce12 O376 . . . 77.6(4) no
O91 Ce12 Ce14 . . . 117.2(2) no
O91 Ce12 Ce27 . . . 158.2(2) no
O91 Ce12 Ce33 . . . 72.2(2) no
O91 Ce12 Ce51 . . . 72.3(2) no
O91 Ce12 O258 . . . 124.7(3) no
O105 Ce12 Ce14 . . . 39.1(2) no
O105 Ce12 Ce27 . . . 98.8(2) no
O105 Ce12 Ce33 . . . 40.3(2) no
O105 Ce12 Ce51 . . . 40.8(2) no
O105 Ce12 O54 . . . 126.2(3) no
O105 Ce12 O91 . . . 78.2(3) no
O105 Ce12 O258 . . . 125.5(3) no
O105 Ce12 O376 . . . 148.2(4) no
O194 Ce12 Ce14 . . . 84.3(3) no
O194 Ce12 Ce27 . . . 122.7(2) no
O194 Ce12 Ce33 . . . 112.0(3) no
O194 Ce12 Ce51 . . . 34.3(3) no
O194 Ce12 O17 . . . 139.1(4) no
O194 Ce12 O54 . . . 150.1(3) no
O194 Ce12 O91 . . . 77.7(3) no
O194 Ce12 O105 . . . 74.9(3) no
O194 Ce12 O258 . . . 65.6(3) no
O194 Ce12 O376 . . . 93.4(5) no
O258 Ce12 Ce14 . . . 99.3(2) no
O258 Ce12 Ce27 . . . 74.7(2) no
O258 Ce12 Ce33 . . . 159.3(2) no
O258 Ce12 Ce51 . . . 94.8(2) no
O376 Ce12 Ce14 . . . 171.2(3) no
O376 Ce12 Ce27 . . . 112.1(4) no
O376 Ce12 Ce33 . . . 128.2(3) no
O376 Ce12 Ce51 . . . 120.8(4) no
O376 Ce12 O91 . . . 70.4(4) no
O376 Ce12 O258 . . . 72.1(4) no
Ce32 Ce13 Ce37 . . . 117.52(3) no
Ce32 Ce13 Ce55 . . . 78.28(2) no
Ce50 Ce13 Ce32 . . . 60.27(2) no
Ce50 Ce13 Ce37 . . . 60.89(2) no
Ce50 Ce13 Ce55 . . . 60.20(2) no
Ce55 Ce13 Ce37 . . . 90.08(3) no
O6 Ce13 Ce32 . . . 125.4(2) no
O6 Ce13 Ce37 . . . 111.1(2) no
O6 Ce13 Ce50 . . . 171.2(2) no
O6 Ce13 Ce55 . . . 125.8(2) no
O6 Ce13 O81 . . . 76.2(3) no
O6 Ce13 O196 . . . 76.0(3) no
O6 Ce13 O292 . . . 72.7(3) no
O31 Ce13 Ce32 . . . 33.7(2) no
O31 Ce13 Ce37 . . . 121.9(2) no
O31 Ce13 Ce50 . . . 83.6(2) no
O31 Ce13 Ce55 . . . 111.4(2) no
O31 Ce13 O6 . . . 98.8(3) no
O31 Ce13 O81 . . . 65.4(3) no
O31 Ce13 O101 . . . 73.3(3) no
O31 Ce13 O139 . . . 139.9(3) no
O31 Ce13 O196 . . . 151.0(3) no
O31 Ce13 O292 . . . 77.5(4) no
O81 Ce13 Ce32 . . . 93.6(2) no
O81 Ce13 Ce37 . . . 74.8(2) no
O81 Ce13 Ce50 . . . 97.28(19) no
O81 Ce13 Ce55 . . . 157.3(2) no
O101 Ce13 Ce32 . . . 39.8(2) no
O101 Ce13 Ce37 . . . 96.7(2) no
O101 Ce13 Ce50 . . . 38.3(2) no
O101 Ce13 Ce55 . . . 41.4(2) no
O101 Ce13 O6 . . . 150.5(3) no
O101 Ce13 O81 . . . 122.4(3) no
O101 Ce13 O196 . . . 124.3(3) no
O101 Ce13 O292 . . . 77.8(3) no
O116 Ce13 Ce32 . . . 87.6(3) no
O116 Ce13 Ce37 . . . 30.0(2) no
O116 Ce13 Ce50 . . . 34.1(2) no
O116 Ce13 Ce55 . . . 83.4(2) no
O116 Ce13 O6 . . . 137.2(3) no
O116 Ce13 O31 . . . 97.4(4) no
O116 Ce13 O81 . . . 75.0(3) no
O116 Ce13 O101 . . . 72.4(3) no
O116 Ce13 O139 . . . 92.7(3) no
O116 Ce13 O196 . . . 70.8(3) no
O116 Ce13 O292 . . . 149.9(3) no
O139 Ce13 Ce32 . . . 108.9(2) no
O139 Ce13 Ce37 . . . 83.3(2) no
O139 Ce13 Ce50 . . . 83.5(2) no
O139 Ce13 Ce55 . . . 31.7(2) no
O139 Ce13 O6 . . . 99.7(3) no
O139 Ce13 O81 . . . 154.1(3) no
O139 Ce13 O101 . . . 73.1(3) no
O139 Ce13 O196 . . . 68.6(3) no
O139 Ce13 O292 . . . 74.6(4) no
O196 Ce13 Ce32 . . . 157.9(2) no
O196 Ce13 Ce37 . . . 41.1(2) no
O196 Ce13 Ce50 . . . 97.8(2) no
O196 Ce13 Ce55 . . . 93.9(2) no
O196 Ce13 O81 . . . 85.7(3) no
O196 Ce13 O292 . . . 125.9(3) no
O292 Ce13 Ce32 . . . 71.6(2) no
O292 Ce13 Ce37 . . . 157.9(3) no
O292 Ce13 Ce50 . . . 116.1(2) no
O292 Ce13 Ce55 . . . 71.5(3) no
O292 Ce13 O81 . . . 126.4(4) no
Ce12 Ce14 Ce4 . . . 89.22(2) no
Ce12 Ce14 Ce33 . . . 60.71(2) no
Ce12 Ce14 Ce51 . . . 60.04(2) no
Ce33 Ce14 Ce4 . . . 59.03(2) no
Ce33 Ce14 Ce51 . . . 78.30(2) no
Ce51 Ce14 Ce4 . . . 136.39(3) no
O3 Ce14 Ce4 . . . 31.5(2) no
O3 Ce14 Ce12 . . . 83.5(2) no
O3 Ce14 Ce33 . . . 31.7(2) no
O3 Ce14 Ce51 . . . 109.1(2) no
O3 Ce14 O105 . . . 72.4(3) no
O3 Ce14 O147 . . . 75.6(3) no
O3 Ce14 O198 . . . 153.4(3) no
O3 Ce14 O200 . . . 99.4(4) no
O3 Ce14 O220 . . . 69.0(3) no
O7 Ce14 Ce4 . . . 79.8(2) no
O7 Ce14 Ce12 . . . 34.2(2) no
O7 Ce14 Ce33 . . . 83.8(2) no
O7 Ce14 Ce51 . . . 87.5(2) no
O7 Ce14 O3 . . . 92.4(3) no
O7 Ce14 O85 . . . 97.5(3) no
O7 Ce14 O105 . . . 72.7(3) no
O7 Ce14 O147 . . . 148.4(4) no
O7 Ce14 O198 . . . 75.7(3) no
O7 Ce14 O200 . . . 138.9(4) no
O7 Ce14 O220 . . . 69.7(3) no
O85 Ce14 Ce4 . . . 170.5(3) no
O85 Ce14 Ce12 . . . 83.7(3) no
O85 Ce14 Ce33 . . . 111.8(3) no
O85 Ce14 Ce51 . . . 34.1(3) no
O85 Ce14 O3 . . . 140.6(3) no
O85 Ce14 O105 . . . 74.5(3) no
O85 Ce14 O147 . . . 76.3(4) no
O85 Ce14 O198 . . . 65.5(4) no
O85 Ce14 O200 . . . 97.8(4) no
O85 Ce14 O220 . . . 149.7(3) no
O105 Ce14 Ce4 . . . 96.1(2) no
O105 Ce14 Ce12 . . . 38.7(2) no
O105 Ce14 Ce33 . . . 40.72(19) no
O105 Ce14 Ce51 . . . 40.5(2) no
O105 Ce14 O147 . . . 75.8(4) no
O105 Ce14 O198 . . . 124.2(3) no
O105 Ce14 O200 . . . 148.4(4) no
O105 Ce14 O220 . . . 123.7(3) no
O147 Ce14 Ce4 . . . 101.2(2) no
O147 Ce14 Ce12 . . . 114.5(3) no
O147 Ce14 Ce33 . . . 70.6(2) no
O147 Ce14 Ce51 . . . 69.8(3) no
O147 Ce14 O198 . . . 126.1(3) no
O147 Ce14 O220 . . . 128.8(4) no
O198 Ce14 Ce4 . . . 122.0(2) no
O198 Ce14 Ce12 . . . 98.0(2) no
O198 Ce14 Ce33 . . . 158.5(2) no
O198 Ce14 Ce51 . . . 94.2(2) no
O200 Ce14 Ce4 . . . 90.0(3) no
O200 Ce14 Ce12 . . . 172.9(3) no
O200 Ce14 Ce33 . . . 124.4(3) no
O200 Ce14 Ce51 . . . 124.2(3) no
O200 Ce14 O147 . . . 72.6(4) no
O200 Ce14 O198 . . . 76.5(4) no
O200 Ce14 O220 . . . 78.0(4) no
O220 Ce14 Ce4 . . . 37.57(18) no
O220 Ce14 Ce12 . . . 97.2(2) no
O220 Ce14 Ce33 . . . 94.53(18) no
O220 Ce14 Ce51 . . . 156.8(2) no
O220 Ce14 O198 . . . 84.5(3) no
Ce1 Ce15 Ce8 . . . 60.39(2) no
Ce1 Ce15 Ce30 . . . 61.81(2) no
Ce1 Ce15 Ce40 . . . 60.59(2) no
Ce8 Ce15 Ce30 . . . 118.32(3) no
Ce8 Ce15 Ce40 . . . 78.86(2) no
Ce40 Ce15 Ce30 . . . 90.87(2) no
O30 Ce15 Ce1 . . . 84.8(2) no
O30 Ce15 Ce8 . . . 33.7(2) no
O30 Ce15 Ce30 . . . 123.8(2) no
O30 Ce15 Ce40 . . . 111.5(2) no
O30 Ce15 O72 . . . 74.1(3) no
O30 Ce15 O104 . . . 150.6(3) no
O30 Ce15 O106 . . . 67.6(3) no
O30 Ce15 O120 . . . 76.4(3) no
O30 Ce15 O403 . . . 98.3(5) no
O67 Ce15 Ce1 . . . 34.2(2) no
O67 Ce15 Ce8 . . . 88.0(2) no
O67 Ce15 Ce30 . . . 30.3(2) no
O67 Ce15 Ce40 . . . 83.2(2) no
O67 Ce15 O30 . . . 99.6(3) no
O67 Ce15 O72 . . . 72.7(3) no
O67 Ce15 O93 . . . 92.5(3) no
O67 Ce15 O104 . . . 70.5(3) no
O67 Ce15 O106 . . . 78.2(3) no
O67 Ce15 O120 . . . 150.8(4) no
O67 Ce15 O403 . . . 137.9(4) no
O72 Ce15 Ce1 . . . 38.7(2) no
O72 Ce15 Ce8 . . . 40.4(2) no
O72 Ce15 Ce30 . . . 97.8(2) no
O72 Ce15 Ce40 . . . 41.2(2) no
O72 Ce15 O104 . . . 125.4(3) no
O72 Ce15 O106 . . . 126.3(3) no
O72 Ce15 O120 . . . 78.5(3) no
O72 Ce15 O403 . . . 149.2(4) no
O93 Ce15 Ce1 . . . 84.6(3) no
O93 Ce15 Ce8 . . . 110.4(3) no
O93 Ce15 Ce30 . . . 83.3(2) no
O93 Ce15 Ce40 . . . 32.7(3) no
O93 Ce15 O30 . . . 140.3(3) no
O93 Ce15 O72 . . . 73.9(3) no
O93 Ce15 O104 . . . 69.0(3) no
O93 Ce15 O106 . . . 152.1(3) no
O93 Ce15 O120 . . . 74.8(4) no
O93 Ce15 O403 . . . 97.3(5) no
O104 Ce15 Ce1 . . . 98.4(2) no
O104 Ce15 Ce8 . . . 158.3(2) no
O104 Ce15 Ce30 . . . 40.4(2) no
O104 Ce15 Ce40 . . . 95.2(2) no
O104 Ce15 O106 . . . 83.1(3) no
O104 Ce15 O120 . . . 125.6(3) no
O104 Ce15 O403 . . . 75.2(4) no
O106 Ce15 Ce1 . . . 100.6(2) no
O106 Ce15 Ce8 . . . 95.6(2) no
O106 Ce15 Ce30 . . . 75.5(2) no
O106 Ce15 Ce40 . . . 160.8(2) no
O120 Ce15 Ce1 . . . 117.2(3) no
O120 Ce15 Ce8 . . . 72.7(3) no
O120 Ce15 Ce30 . . . 158.0(3) no
O120 Ce15 Ce40 . . . 71.9(3) no
O120 Ce15 O106 . . . 124.3(4) no
O403 Ce15 Ce1 . . . 172.0(3) no
O403 Ce15 Ce8 . . . 125.4(4) no
O403 Ce15 Ce30 . . . 110.6(4) no
O403 Ce15 Ce40 . . . 124.1(4) no
O403 Ce15 O106 . . . 74.1(4) no
O403 Ce15 O120 . . . 70.7(4) no
Ce35 Ce16 Ce41 . . . 89.93(3) no
Ce35 Ce16 Ce44 . . . 60.81(2) no
Ce35 Ce16 Ce60 . . . 60.55(2) no
Ce44 Ce16 Ce41 . . . 136.54(3) no
Ce44 Ce16 Ce60 . . . 78.31(2) no
Ce60 Ce16 Ce41 . . . 58.77(2) no
O56 Ce16 Ce35 . . . 99.1(2) no
O56 Ce16 Ce41 . . . 37.9(2) no
O56 Ce16 Ce44 . . . 159.7(2) no
O56 Ce16 Ce60 . . . 94.8(2) no
O56 Ce16 O132 . . . 124.8(3) no
O56 Ce16 O208 . . . 85.1(3) no
O63 Ce16 Ce35 . . . 83.7(3) no
O63 Ce16 Ce41 . . . 31.0(3) no
O63 Ce16 Ce44 . . . 109.0(3) no
O63 Ce16 Ce60 . . . 31.8(3) no
O63 Ce16 O56 . . . 68.8(3) no
O63 Ce16 O82 . . . 139.1(4) no
O63 Ce16 O84 . . . 72.5(4) no
O63 Ce16 O132 . . . 74.2(4) no
O63 Ce16 O208 . . . 154.0(3) no
O63 Ce16 O412 . . . 104.3(4) no
O82 Ce16 Ce35 . . . 84.7(2) no
O82 Ce16 Ce41 . . . 169.6(2) no
O82 Ce16 Ce44 . . . 33.5(2) no
O82 Ce16 Ce60 . . . 110.9(2) no
O82 Ce16 O56 . . . 152.0(3) no
O82 Ce16 O84 . . . 74.1(3) no
O82 Ce16 O132 . . . 76.2(4) no
O82 Ce16 O208 . . . 66.9(3) no
O82 Ce16 O412 . . . 91.2(4) no
O84 Ce16 Ce35 . . . 38.5(2) no
O84 Ce16 Ce41 . . . 96.2(2) no
O84 Ce16 Ce44 . . . 40.8(2) no
O84 Ce16 Ce60 . . . 40.7(2) no
O84 Ce16 O56 . . . 125.0(3) no
O84 Ce16 O132 . . . 77.6(3) no
O84 Ce16 O208 . . . 125.7(3) no
O84 Ce16 O412 . . . 147.0(4) no
O121 Ce16 Ce35 . . . 34.7(2) no
O121 Ce16 Ce41 . . . 82.6(3) no
O121 Ce16 Ce44 . . . 87.7(3) no
O121 Ce16 Ce60 . . . 85.2(2) no
O121 Ce16 O56 . . . 72.6(3) no
O121 Ce16 O63 . . . 94.5(4) no
O121 Ce16 O82 . . . 97.8(4) no
O121 Ce16 O84 . . . 73.2(3) no
O121 Ce16 O132 . . . 150.6(3) no
O121 Ce16 O208 . . . 76.3(3) no
O121 Ce16 O412 . . . 139.1(4) no
O132 Ce16 Ce35 . . . 116.1(3) no
O132 Ce16 Ce41 . . . 98.4(2) no
O132 Ce16 Ce44 . . . 71.3(3) no
O132 Ce16 Ce60 . . . 70.8(2) no
O132 Ce16 O208 . . . 124.6(3) no
O208 Ce16 Ce35 . . . 100.3(2) no
O208 Ce16 Ce41 . . . 123.0(2) no
O208 Ce16 Ce44 . . . 95.1(2) no
O208 Ce16 Ce60 . . . 160.7(2) no
O412 Ce16 Ce35 . . . 171.2(3) no
O412 Ce16 Ce41 . . . 95.3(3) no
O412 Ce16 Ce44 . . . 118.4(3) no
O412 Ce16 Ce60 . . . 128.3(3) no
O412 Ce16 O56 . . . 80.8(4) no
O412 Ce16 O132 . . . 70.2(4) no
O412 Ce16 O208 . . . 70.8(4) no
Ce19 Ce17 Ce30 . . . 61.45(2) no
Ce19 Ce17 Ce40 . . . 60.47(2) no
Ce19 Ce17 Ce44 . . . 60.09(2) no
Ce40 Ce17 Ce30 . . . 90.30(2) no
Ce44 Ce17 Ce30 . . . 117.74(3) no
Ce44 Ce17 Ce40 . . . 78.92(2) no
O35 Ce17 Ce19 . . . 83.4(2) no
O35 Ce17 Ce30 . . . 82.6(2) no
O35 Ce17 Ce40 . . . 31.6(2) no
O35 Ce17 Ce44 . . . 109.7(2) no
O35 Ce17 O38 . . . 72.8(3) no
O35 Ce17 O64 . . . 68.9(3) no
O35 Ce17 O153 . . . 74.4(3) no
O35 Ce17 O208 . . . 152.6(3) no
O35 Ce17 O243 . . . 97.3(4) no
O38 Ce17 Ce19 . . . 37.8(2) no
O38 Ce17 Ce30 . . . 96.5(2) no
O38 Ce17 Ce40 . . . 41.2(2) no
O38 Ce17 Ce44 . . . 40.8(3) no
O38 Ce17 O64 . . . 124.2(3) no
O38 Ce17 O153 . . . 78.5(3) no
O38 Ce17 O208 . . . 125.0(3) no
O38 Ce17 O243 . . . 150.9(3) no
O64 Ce17 Ce19 . . . 98.2(2) no
O64 Ce17 Ce30 . . . 40.5(2) no
O64 Ce17 Ce40 . . . 94.57(18) no
O64 Ce17 Ce44 . . . 157.9(2) no
O64 Ce17 O153 . . . 125.3(3) no
O64 Ce17 O208 . . . 83.8(3) no
O64 Ce17 O243 . . . 73.8(3) no
O66 Ce17 Ce19 . . . 34.9(2) no
O66 Ce17 Ce30 . . . 29.8(2) no
O66 Ce17 Ce40 . . . 83.9(2) no
O66 Ce17 Ce44 . . . 88.0(2) no
O66 Ce17 O35 . . . 92.3(4) no
O66 Ce17 O38 . . . 72.6(3) no
O66 Ce17 O64 . . . 70.2(3) no
O66 Ce17 O82 . . . 98.2(4) no
O66 Ce17 O153 . . . 150.7(3) no
O66 Ce17 O208 . . . 76.3(3) no
O66 Ce17 O243 . . . 136.2(3) no
O82 Ce17 Ce19 . . . 83.6(2) no
O82 Ce17 Ce30 . . . 122.7(3) no
O82 Ce17 Ce40 . . . 111.3(2) no
O82 Ce17 Ce44 . . . 33.1(2) no
O82 Ce17 O35 . . . 139.9(3) no
O82 Ce17 O38 . . . 73.8(3) no
O82 Ce17 O64 . . . 150.7(3) no
O82 Ce17 O153 . . . 78.0(4) no
O82 Ce17 O208 . . . 67.1(3) no
O82 Ce17 O243 . . . 101.3(4) no
O153 Ce17 Ce19 . . . 116.3(3) no
O153 Ce17 Ce30 . . . 156.9(3) no
O153 Ce17 Ce40 . . . 71.0(3) no
O153 Ce17 Ce44 . . . 72.9(3) no
O153 Ce17 O208 . . . 126.2(3) no
O153 Ce17 O243 . . . 72.4(4) no
O208 Ce17 Ce19 . . . 99.5(2) no
O208 Ce17 Ce30 . . . 75.2(2) no
O208 Ce17 Ce40 . . . 159.6(2) no
O208 Ce17 Ce44 . . . 95.0(2) no
O243 Ce17 Ce19 . . . 170.9(3) no
O243 Ce17 Ce30 . . . 109.6(3) no
O243 Ce17 Ce40 . . . 123.4(3) no
O243 Ce17 Ce44 . . . 127.5(3) no
O243 Ce17 O208 . . . 75.7(4) no
Ce51 Ce18 Ce46 . . . 136.51(3) no
Ce51 Ce18 Ce69 . . . 78.47(3) no
Ce56 Ce18 Ce46 . . . 89.69(2) no
Ce56 Ce18 Ce51 . . . 59.75(2) no
Ce56 Ce18 Ce69 . . . 60.71(3) no
Ce69 Ce18 Ce46 . . . 58.90(2) no
O13 Ce18 Ce46 . . . 79.9(3) no
O13 Ce18 Ce51 . . . 87.4(3) no
O13 Ce18 Ce56 . . . 34.0(3) no
O13 Ce18 Ce69 . . . 83.2(3) no
O13 Ce18 O61 . . . 69.4(4) no
O13 Ce18 O146 . . . 71.7(4) no
O13 Ce18 O164 . . . 91.4(4) no
O13 Ce18 O258 . . . 77.0(3) no
O13 Ce18 O274 . . . 148.8(4) no
O13 Ce18 O366 . . . 138.8(4) no
O61 Ce18 Ce46 . . . 37.6(2) no
O61 Ce18 Ce51 . . . 156.4(2) no
O61 Ce18 Ce56 . . . 97.0(2) no
O61 Ce18 Ce69 . . . 94.2(2) no
O61 Ce18 O258 . . . 82.7(3) no
O61 Ce18 O274 . . . 127.3(3) no
O146 Ce18 Ce46 . . . 97.0(2) no
O146 Ce18 Ce51 . . . 39.7(2) no
O146 Ce18 Ce56 . . . 37.9(3) no
O146 Ce18 Ce69 . . . 41.9(2) no
O146 Ce18 O61 . . . 123.7(3) no
O146 Ce18 O258 . . . 125.3(3) no
O146 Ce18 O274 . . . 77.4(4) no
O146 Ce18 O366 . . . 149.5(4) no
O164 Ce18 Ce46 . . . 31.9(3) no
O164 Ce18 Ce51 . . . 108.4(3) no
O164 Ce18 Ce56 . . . 82.8(3) no
O164 Ce18 Ce69 . . . 30.7(3) no
O164 Ce18 O61 . . . 69.5(4) no
O164 Ce18 O146 . . . 72.6(4) no
O164 Ce18 O258 . . . 152.1(3) no
O164 Ce18 O274 . . . 74.5(4) no
O164 Ce18 O366 . . . 100.7(5) no
O194 Ce18 Ce46 . . . 170.5(3) no
O194 Ce18 Ce51 . . . 34.0(3) no
O194 Ce18 Ce56 . . . 83.5(3) no
O194 Ce18 Ce69 . . . 111.7(3) no
O194 Ce18 O13 . . . 97.9(4) no
O194 Ce18 O61 . . . 149.9(4) no
O194 Ce18 O146 . . . 73.5(3) no
O194 Ce18 O164 . . . 139.8(4) no
O194 Ce18 O258 . . . 67.6(3) no
O194 Ce18 O274 . . . 77.7(3) no
O194 Ce18 O366 . . . 97.7(4) no
O258 Ce18 Ce46 . . . 120.3(2) no
O258 Ce18 Ce51 . . . 96.4(2) no
O258 Ce18 Ce56 . . . 99.6(2) no
O258 Ce18 Ce69 . . . 159.7(2) no
O274 Ce18 Ce46 . . . 99.4(2) no
O274 Ce18 Ce51 . . . 71.6(3) no
O274 Ce18 Ce56 . . . 115.3(3) no
O274 Ce18 Ce69 . . . 70.4(3) no
O274 Ce18 O258 . . . 127.0(3) no
O366 Ce18 Ce46 . . . 90.0(3) no
O366 Ce18 Ce51 . . . 124.3(3) no
O366 Ce18 Ce56 . . . 172.5(3) no
O366 Ce18 Ce69 . . . 125.0(3) no
O366 Ce18 O61 . . . 78.3(4) no
O366 Ce18 O258 . . . 74.2(4) no
O366 Ce18 O274 . . . 72.1(4) no
Ce17 Ce19 Ce30 . . . 61.48(2) no
Ce17 Ce19 Ce40 . . . 60.49(2) no
Ce17 Ce19 Ce44 . . . 60.23(2) no
Ce40 Ce19 Ce30 . . . 90.33(2) no
Ce44 Ce19 Ce30 . . . 117.90(3) no
Ce44 Ce19 Ce40 . . . 78.99(2) no
O38 Ce19 Ce17 . . . 38.1(2) no
O38 Ce19 Ce30 . . . 96.8(2) no
O38 Ce19 Ce40 . . . 41.2(2) no
O38 Ce19 Ce44 . . . 40.8(3) no
O38 Ce19 O104 . . . 124.0(3) no
O38 Ce19 O175 . . . 126.3(3) no
O38 Ce19 O230 . . . 76.1(4) no
O38 Ce19 O309 . . . 147.6(4) no
O65 Ce19 Ce17 . . . 83.5(2) no
O65 Ce19 Ce30 . . . 123.0(2) no
O65 Ce19 Ce40 . . . 110.7(2) no
O65 Ce19 Ce44 . . . 32.5(2) no
O65 Ce19 O38 . . . 73.2(3) no
O65 Ce19 O104 . . . 151.4(3) no
O65 Ce19 O175 . . . 69.2(3) no
O65 Ce19 O230 . . . 74.6(4) no
O65 Ce19 O309 . . . 99.0(5) no
O66 Ce19 Ce17 . . . 34.2(2) no
O66 Ce19 Ce30 . . . 30.3(2) no
O66 Ce19 Ce40 . . . 83.5(3) no
O66 Ce19 Ce44 . . . 87.6(2) no
O66 Ce19 O38 . . . 72.2(3) no
O66 Ce19 O65 . . . 98.1(3) no
O66 Ce19 O104 . . . 70.3(3) no
O66 Ce19 O175 . . . 76.5(3) no
O66 Ce19 O230 . . . 148.3(4) no
O66 Ce19 O309 . . . 140.1(4) no
O93 Ce19 Ce17 . . . 84.0(3) no
O93 Ce19 Ce30 . . . 83.2(2) no
O93 Ce19 Ce40 . . . 31.9(2) no
O93 Ce19 Ce44 . . . 109.9(2) no
O93 Ce19 O38 . . . 73.1(3) no
O93 Ce19 O65 . . . 139.3(3) no
O93 Ce19 O66 . . . 92.8(4) no
O93 Ce19 O104 . . . 68.8(3) no
O93 Ce19 O175 . . . 151.3(3) no
O93 Ce19 O230 . . . 75.7(4) no
O93 Ce19 O309 . . . 97.2(5) no
O104 Ce19 Ce17 . . . 97.8(2) no
O104 Ce19 Ce30 . . . 40.2(2) no
O104 Ce19 Ce40 . . . 94.3(2) no
O104 Ce19 Ce44 . . . 157.6(2) no
O104 Ce19 O175 . . . 82.5(3) no
O104 Ce19 O230 . . . 128.7(4) no
O175 Ce19 Ce17 . . . 99.9(2) no
O175 Ce19 Ce30 . . . 74.2(2) no
O175 Ce19 Ce40 . . . 159.7(2) no
O175 Ce19 Ce44 . . . 96.4(2) no
O230 Ce19 Ce17 . . . 114.3(3) no
O230 Ce19 Ce30 . . . 158.8(3) no
O230 Ce19 Ce40 . . . 71.1(3) no
O230 Ce19 Ce44 . . . 69.6(3) no
O230 Ce19 O175 . . . 126.1(4) no
O309 Ce19 Ce17 . . . 174.3(3) no
O309 Ce19 Ce30 . . . 113.0(3) no
O309 Ce19 Ce40 . . . 122.8(4) no
O309 Ce19 Ce44 . . . 124.1(4) no
O309 Ce19 O104 . . . 77.5(4) no
O309 Ce19 O175 . . . 76.3(4) no
O309 Ce19 O230 . . . 71.5(4) no
Ce6 Ce20 Ce7 . . . 95.07(2) no
Ce6 Ce20 Ce21 . . . 65.94(2) no
Ce7 Ce20 Ce21 . . . 59.36(2) no
Ce10 Ce20 Ce6 . . . 59.40(2) no
Ce10 Ce20 Ce7 . . . 66.09(2) no
Ce10 Ce20 Ce21 . . . 94.57(2) no
O2 Ce20 Ce6 . . . 34.3(2) no
O2 Ce20 Ce7 . . . 83.9(2) no
O2 Ce20 Ce10 . . . 83.6(2) no
O2 Ce20 Ce21 . . . 34.34(19) no
O2 Ce20 O12 . . . 72.6(3) no
O2 Ce20 O23 . . . 72.7(3) no
O2 Ce20 O39 . . . 146.4(3) no
O2 Ce20 O50 . . . 93.2(3) no
O2 Ce20 O142 . . . 89.1(3) no
O2 Ce20 O259 . . . 85.5(4) no
O2 Ce20 O277 . . . 146.2(3) no
O12 Ce20 Ce6 . . . 101.7(2) no
O12 Ce20 Ce7 . . . 39.10(19) no
O12 Ce20 Ce10 . . . 102.14(19) no
O12 Ce20 Ce21 . . . 38.3(2) no
O12 Ce20 O39 . . . 137.4(3) no
O12 Ce20 O142 . . . 137.4(3) no
O12 Ce20 O259 . . . 74.9(3) no
O12 Ce20 O277 . . . 75.1(3) no
O23 Ce20 Ce6 . . . 38.6(2) no
O23 Ce20 Ce7 . . . 101.8(2) no
O23 Ce20 Ce10 . . . 38.6(2) no
O23 Ce20 Ce21 . . . 101.5(2) no
O23 Ce20 O12 . . . 129.6(3) no
O23 Ce20 O39 . . . 74.6(3) no
O23 Ce20 O142 . . . 76.6(3) no
O23 Ce20 O259 . . . 136.3(3) no
O23 Ce20 O277 . . . 138.3(3) no
O39 Ce20 Ce6 . . . 112.4(2) no
O39 Ce20 Ce7 . . . 110.8(3) no
O39 Ce20 Ce10 . . . 75.9(3) no
O39 Ce20 Ce21 . . . 168.9(3) no
O39 Ce20 O142 . . . 75.6(4) no
O39 Ce20 O259 . . . 113.5(4) no
O50 Ce20 Ce6 . . . 84.9(2) no
O50 Ce20 Ce7 . . . 33.5(2) no
O50 Ce20 Ce10 . . . 35.6(2) no
O50 Ce20 Ce21 . . . 83.5(2) no
O50 Ce20 O12 . . . 72.6(3) no
O50 Ce20 O23 . . . 74.0(3) no
O50 Ce20 O39 . . . 85.4(4) no
O50 Ce20 O142 . . . 148.4(3) no
O50 Ce20 O259 . . . 146.2(3) no
O50 Ce20 O277 . . . 86.3(4) no
O142 Ce20 Ce6 . . . 79.3(2) no
O142 Ce20 Ce7 . . . 172.9(2) no
O142 Ce20 Ce10 . . . 113.9(2) no
O142 Ce20 Ce21 . . . 113.9(2) no
O259 Ce20 Ce6 . . . 110.5(3) no
O259 Ce20 Ce7 . . . 113.2(3) no
O259 Ce20 Ce10 . . . 169.1(3) no
O259 Ce20 Ce21 . . . 76.5(3) no
O259 Ce20 O142 . . . 65.4(4) no
O277 Ce20 Ce6 . . . 171.2(3) no
O277 Ce20 Ce7 . . . 77.2(2) no
O277 Ce20 Ce10 . . . 112.9(3) no
O277 Ce20 Ce21 . . . 112.5(2) no
O277 Ce20 O39 . . . 67.3(3) no
O277 Ce20 O142 . . . 108.7(3) no
O277 Ce20 O259 . . . 76.9(4) no
Ce7 Ce21 Ce20 . . . 60.26(2) no
Ce7 Ce21 Ce23 . . . 62.08(2) no
Ce7 Ce21 Ce63 . . . 60.60(2) no
Ce20 Ce21 Ce23 . . . 118.78(3) no
Ce20 Ce21 Ce63 . . . 78.37(2) no
Ce63 Ce21 Ce23 . . . 90.69(3) no
O2 Ce21 Ce7 . . . 84.2(2) no
O2 Ce21 Ce20 . . . 33.7(2) no
O2 Ce21 Ce23 . . . 123.8(2) no
O2 Ce21 Ce63 . . . 111.2(2) no
O2 Ce21 O12 . . . 73.6(3) no
O2 Ce21 O86 . . . 151.8(3) no
O2 Ce21 O92 . . . 139.5(3) no
O2 Ce21 O112 . . . 67.5(3) no
O2 Ce21 O167 . . . 77.2(3) no
O2 Ce21 O269 . . . 92.9(3) no
O12 Ce21 Ce7 . . . 39.3(2) no
O12 Ce21 Ce20 . . . 39.93(19) no
O12 Ce21 Ce23 . . . 98.5(2) no
O12 Ce21 Ce63 . . . 41.04(19) no
O12 Ce21 O86 . . . 125.8(3) no
O12 Ce21 O112 . . . 125.1(3) no
O12 Ce21 O167 . . . 78.8(3) no
O12 Ce21 O269 . . . 149.4(3) no
O44 Ce21 Ce7 . . . 34.6(2) no
O44 Ce21 Ce20 . . . 88.1(2) no
O44 Ce21 Ce23 . . . 30.7(2) no
O44 Ce21 Ce63 . . . 84.1(2) no
O44 Ce21 O2 . . . 98.6(3) no
O44 Ce21 O12 . . . 73.9(3) no
O44 Ce21 O86 . . . 71.9(3) no
O44 Ce21 O92 . . . 93.7(3) no
O44 Ce21 O112 . . . 75.4(3) no
O44 Ce21 O167 . . . 152.4(4) no
O44 Ce21 O269 . . . 136.3(3) no
O86 Ce21 Ce7 . . . 99.4(2) no
O86 Ce21 Ce20 . . . 159.4(2) no
O86 Ce21 Ce23 . . . 41.4(2) no
O86 Ce21 Ce63 . . . 94.5(2) no
O86 Ce21 O112 . . . 84.4(3) no
O86 Ce21 O167 . . . 123.4(3) no
O86 Ce21 O269 . . . 78.2(4) no
O92 Ce21 Ce7 . . . 84.5(2) no
O92 Ce21 Ce20 . . . 109.2(2) no
O92 Ce21 Ce23 . . . 83.6(2) no
O92 Ce21 Ce63 . . . 32.1(2) no
O92 Ce21 O12 . . . 73.1(3) no
O92 Ce21 O86 . . . 68.6(3) no
O92 Ce21 O112 . . . 152.9(3) no
O92 Ce21 O167 . . . 74.4(4) no
O92 Ce21 O269 . . . 104.4(4) no
O112 Ce21 Ce7 . . . 98.56(19) no
O112 Ce21 Ce20 . . . 95.35(19) no
O112 Ce21 Ce23 . . . 74.41(19) no
O112 Ce21 Ce63 . . . 158.73(19) no
O167 Ce21 Ce7 . . . 118.2(3) no
O167 Ce21 Ce20 . . . 73.2(2) no
O167 Ce21 Ce23 . . . 157.6(2) no
O167 Ce21 Ce63 . . . 72.6(3) no
O167 Ce21 O112 . . . 125.4(3) no
O269 Ce21 Ce7 . . . 168.9(3) no
O269 Ce21 Ce20 . . . 121.2(3) no
O269 Ce21 Ce23 . . . 111.7(3) no
O269 Ce21 Ce63 . . . 130.1(3) no
O269 Ce21 O112 . . . 70.5(3) no
O269 Ce21 O167 . . . 71.3(4) no
Ce31 Ce22 Ce9 . . . 56.43(2) no
Ce54 Ce22 Ce9 . . . 87.62(2) no
Ce54 Ce22 Ce31 . . . 60.10(2) no
O14 Ce22 Ce9 . . . 38.61(19) no
O14 Ce22 Ce31 . . . 91.26(19) no
O14 Ce22 Ce54 . . . 91.7(2) no
O51 Ce22 Ce9 . . . 106.7(2) no
O51 Ce22 Ce31 . . . 155.1(2) no
O51 Ce22 Ce54 . . . 104.5(3) no
O51 Ce22 O14 . . . 68.5(3) no
O51 Ce22 O80 . . . 139.6(3) no
O51 Ce22 O166 . . . 134.1(3) no
O51 Ce22 O238 . . . 85.8(4) no
O51 Ce22 O254 . . . 80.9(4) no
O51 Ce22 O383 . . . 66.4(4) no
O62 Ce22 Ce9 . . . 80.0(2) no
O62 Ce22 Ce31 . . . 80.3(2) no
O62 Ce22 Ce54 . . . 30.5(2) no
O62 Ce22 O14 . . . 67.3(3) no
O62 Ce22 O51 . . . 78.5(3) no
O62 Ce22 O80 . . . 68.6(3) no
O62 Ce22 O96 . . . 89.7(3) no
O62 Ce22 O166 . . . 138.7(3) no
O62 Ce22 O238 . . . 81.6(3) no
O62 Ce22 O254 . . . 135.0(4) no
O62 Ce22 O383 . . . 133.4(4) no
O80 Ce22 Ce9 . . . 90.5(2) no
O80 Ce22 Ce31 . . . 37.51(19) no
O80 Ce22 Ce54 . . . 38.5(2) no
O80 Ce22 O14 . . . 116.1(3) no
O96 Ce22 Ce9 . . . 29.8(2) no
O96 Ce22 Ce31 . . . 30.4(2) no
O96 Ce22 Ce54 . . . 81.8(3) no
O96 Ce22 O14 . . . 68.3(3) no
O96 Ce22 O51 . . . 136.4(3) no
O96 Ce22 O80 . . . 67.8(3) no
O96 Ce22 O166 . . . 80.1(3) no
O96 Ce22 O238 . . . 134.2(3) no
O96 Ce22 O254 . . . 78.6(3) no
O96 Ce22 O383 . . . 136.9(4) no
O166 Ce22 Ce9 . . . 106.0(2) no
O166 Ce22 Ce31 . . . 70.8(2) no
O166 Ce22 Ce54 . . . 108.2(2) no
O166 Ce22 O14 . . . 139.8(3) no
O166 Ce22 O80 . . . 70.5(3) no
O166 Ce22 O238 . . . 77.6(4) no
O166 Ce22 O383 . . . 67.7(4) no
O238 Ce22 Ce9 . . . 155.1(2) no
O238 Ce22 Ce31 . . . 103.9(2) no
O238 Ce22 Ce54 . . . 68.2(2) no
O238 Ce22 O14 . . . 142.6(3) no
O238 Ce22 O80 . . . 67.2(3) no
O238 Ce22 O383 . . . 66.7(4) no
O254 Ce22 Ce9 . . . 68.4(2) no
O254 Ce22 Ce31 . . . 105.6(2) no
O254 Ce22 Ce54 . . . 155.8(3) no
O254 Ce22 O14 . . . 68.1(3) no
O254 Ce22 O80 . . . 139.4(3) no
O254 Ce22 O166 . . . 82.2(4) no
O254 Ce22 O238 . . . 136.0(3) no
O254 Ce22 O383 . . . 69.5(4) no
O383 Ce22 Ce9 . . . 137.9(3) no
O383 Ce22 Ce31 . . . 138.5(3) no
O383 Ce22 Ce54 . . . 134.5(3) no
O383 Ce22 O14 . . . 121.3(3) no
O383 Ce22 O80 . . . 122.5(4) no
Ce21 Ce23 Ce47 . . . 60.10(2) no
Ce21 Ce23 Ce49 . . . 87.22(2) no
Ce47 Ce23 Ce49 . . . 57.09(2) no
O44 Ce23 Ce21 . . . 29.8(2) no
O44 Ce23 Ce47 . . . 81.0(2) no
O44 Ce23 Ce49 . . . 81.0(2) no
O44 Ce23 O68 . . . 78.6(3) no
O44 Ce23 O86 . . . 67.7(3) no
O44 Ce23 O100 . . . 69.2(3) no
O44 Ce23 O119 . . . 78.5(3) no
O44 Ce23 O273 . . 2_666 136.9(3) no
O44 Ce23 O324 . . . 135.1(3) no
O44 Ce23 O327 . . . 135.7(4) no
O68 Ce23 Ce21 . . . 105.1(3) no
O68 Ce23 Ce47 . . . 154.9(3) no
O68 Ce23 Ce49 . . . 105.0(3) no
O68 Ce23 O86 . . . 139.4(3) no
O68 Ce23 O100 . . . 67.2(4) no
O68 Ce23 O327 . . . 69.3(4) no
O86 Ce23 Ce21 . . . 38.04(17) no
O86 Ce23 Ce47 . . . 38.6(2) no
O86 Ce23 Ce49 . . . 91.8(2) no
O86 Ce23 O100 . . . 117.4(3) no
O86 Ce23 O327 . . . 121.7(3) no
O100 Ce23 Ce21 . . . 92.1(2) no
O100 Ce23 Ce47 . . . 92.0(2) no
O100 Ce23 Ce49 . . . 38.2(2) no
O119 Ce23 Ce21 . . . 68.9(3) no
O119 Ce23 Ce47 . . . 107.2(3) no
O119 Ce23 Ce49 . . . 156.1(3) no
O119 Ce23 O68 . . . 82.9(4) no
O119 Ce23 O86 . . . 69.1(3) no
O119 Ce23 O100 . . . 139.2(3) no
O119 Ce23 O327 . . . 68.1(4) no
O151 Ce23 Ce21 . . . 81.3(2) no
O151 Ce23 Ce47 . . . 30.4(3) no
O151 Ce23 Ce49 . . . 30.3(2) no
O151 Ce23 O44 . . . 90.5(3) no
O151 Ce23 O68 . . . 135.3(4) no
O151 Ce23 O86 . . . 68.8(3) no
O151 Ce23 O100 . . . 68.4(3) no
O151 Ce23 O119 . . . 137.5(4) no
O151 Ce23 O273 . . 2_666 78.2(4) no
O151 Ce23 O324 . . . 79.9(3) no
O151 Ce23 O327 . . . 133.8(3) no
O273 Ce23 Ce21 2_666 . . 155.5(3) no
O273 Ce23 Ce47 2_666 . . 104.8(3) no
O273 Ce23 Ce49 2_666 . . 68.3(3) no
O273 Ce23 O68 2_666 . . 80.9(4) no
O273 Ce23 O86 2_666 . . 139.5(4) no
O273 Ce23 O100 2_666 . . 68.0(3) no
O273 Ce23 O119 2_666 . . 135.6(4) no
O273 Ce23 O324 2_666 . . 84.1(4) no
O273 Ce23 O327 2_666 . . 67.4(4) no
O324 Ce23 Ce21 . . . 105.4(3) no
O324 Ce23 Ce47 . . . 68.7(3) no
O324 Ce23 Ce49 . . . 107.0(3) no
O324 Ce23 O68 . . . 136.3(4) no
O324 Ce23 O86 . . . 67.9(3) no
O324 Ce23 O100 . . . 141.0(3) no
O324 Ce23 O119 . . . 79.7(3) no
O324 Ce23 O327 . . . 67.1(4) no
O327 Ce23 Ce21 . . . 137.0(3) no
O327 Ce23 Ce47 . . . 135.7(3) no
O327 Ce23 Ce49 . . . 135.8(3) no
O327 Ce23 O100 . . . 120.9(3) no
Ce32 Ce24 Ce42 . . . 119.55(3) no
Ce32 Ce24 Ce62 . . . 78.52(2) no
Ce45 Ce24 Ce32 . . . 60.59(2) no
Ce45 Ce24 Ce42 . . . 62.59(2) no
Ce45 Ce24 Ce62 . . . 60.52(2) no
Ce62 Ce24 Ce42 . . . 90.94(2) no
O9 Ce24 Ce32 . . . 108.9(2) no
O9 Ce24 Ce42 . . . 83.3(3) no
O9 Ce24 Ce45 . . . 83.7(2) no
O9 Ce24 Ce62 . . . 31.5(2) no
O9 Ce24 O18 . . . 68.0(3) no
O9 Ce24 O48 . . . 72.2(3) no
O9 Ce24 O81 . . . 154.8(3) no
O9 Ce24 O260 . . . 73.2(4) no
O9 Ce24 O328 . . . 109.1(3) no
O18 Ce24 Ce32 . . . 159.7(2) no
O18 Ce24 Ce42 . . . 41.1(2) no
O18 Ce24 Ce45 . . . 99.2(2) no
O18 Ce24 Ce62 . . . 93.8(2) no
O18 Ce24 O81 . . . 86.9(3) no
O18 Ce24 O260 . . . 121.4(4) no
O18 Ce24 O328 . . . 82.0(3) no
O31 Ce24 Ce32 . . . 34.0(2) no
O31 Ce24 Ce42 . . . 124.3(3) no
O31 Ce24 Ce45 . . . 84.8(2) no
O31 Ce24 Ce62 . . . 111.6(2) no
O31 Ce24 O9 . . . 139.5(3) no
O31 Ce24 O18 . . . 152.4(3) no
O31 Ce24 O48 . . . 74.5(3) no
O31 Ce24 O81 . . . 65.5(3) no
O31 Ce24 O260 . . . 78.7(4) no
O31 Ce24 O328 . . . 88.0(3) no
O48 Ce24 Ce32 . . . 40.7(2) no
O48 Ce24 Ce42 . . . 98.5(2) no
O48 Ce24 Ce45 . . . 39.0(2) no
O48 Ce24 Ce62 . . . 40.7(2) no
O48 Ce24 O18 . . . 124.7(3) no
O48 Ce24 O81 . . . 124.6(3) no
O48 Ce24 O260 . . . 79.5(3) no
O48 Ce24 O328 . . . 148.3(4) no
O60 Ce24 Ce32 . . . 88.0(2) no
O60 Ce24 Ce42 . . . 31.6(2) no
O60 Ce24 Ce45 . . . 34.2(2) no
O60 Ce24 Ce62 . . . 83.8(2) no
O60 Ce24 O9 . . . 93.1(3) no
O60 Ce24 O18 . . . 72.4(3) no
O60 Ce24 O31 . . . 98.7(3) no
O60 Ce24 O48 . . . 73.1(3) no
O60 Ce24 O81 . . . 76.7(3) no
O60 Ce24 O260 . . . 152.1(3) no
O60 Ce24 O328 . . . 136.8(4) no
O81 Ce24 Ce32 . . . 93.9(2) no
O81 Ce24 Ce42 . . . 76.03(19) no
O81 Ce24 Ce45 . . . 99.0(2) no
O81 Ce24 Ce62 . . . 159.4(2) no
O260 Ce24 Ce32 . . . 74.3(3) no
O260 Ce24 Ce42 . . . 155.9(2) no
O260 Ce24 Ce45 . . . 118.4(3) no
O260 Ce24 Ce62 . . . 71.8(2) no
O260 Ce24 O81 . . . 125.0(3) no
O260 Ce24 O328 . . . 71.1(4) no
O328 Ce24 Ce32 . . . 117.0(3) no
O328 Ce24 Ce42 . . . 113.1(3) no
O328 Ce24 Ce45 . . . 166.4(3) no
O328 Ce24 Ce62 . . . 133.0(3) no
O328 Ce24 O81 . . . 67.5(3) no
Ce41 Ce25 Ce35 . . . 89.64(3) no
Ce41 Ce25 Ce57 . . . 60.72(2) no
Ce41 Ce25 Ce60 . . . 60.71(2) no
Ce57 Ce25 Ce35 . . . 136.40(3) no
Ce57 Ce25 Ce60 . . . 78.40(3) no
Ce60 Ce25 Ce35 . . . 58.64(2) no
O15 Ce25 Ce35 . . . 97.7(2) no
O15 Ce25 Ce41 . . . 38.9(2) no
O15 Ce25 Ce57 . . . 39.1(2) no
O15 Ce25 Ce60 . . . 42.4(2) no
O15 Ce25 O130 . . . 123.2(3) no
O15 Ce25 O203 . . . 125.5(4) no
O15 Ce25 O211 . . . 145.5(4) no
O15 Ce25 O286 . . . 78.3(3) no
O24 Ce25 Ce35 . . . 30.7(2) no
O24 Ce25 Ce41 . . . 83.5(3) no
O24 Ce25 Ce57 . . . 109.3(2) no
O24 Ce25 Ce60 . . . 31.8(2) no
O24 Ce25 O15 . . . 74.1(3) no
O24 Ce25 O78 . . . 140.2(4) no
O24 Ce25 O130 . . . 153.7(3) no
O24 Ce25 O203 . . . 67.8(4) no
O24 Ce25 O211 . . . 104.1(4) no
O24 Ce25 O286 . . . 75.5(4) no
O78 Ce25 Ce35 . . . 170.0(3) no
O78 Ce25 Ce41 . . . 84.0(3) no
O78 Ce25 Ce57 . . . 33.7(3) no
O78 Ce25 Ce60 . . . 111.4(3) no
O78 Ce25 O15 . . . 72.6(4) no
O78 Ce25 O130 . . . 65.8(3) no
O78 Ce25 O203 . . . 151.6(4) no
O78 Ce25 O211 . . . 91.6(4) no
O78 Ce25 O286 . . . 77.0(4) no
O130 Ce25 Ce35 . . . 123.0(2) no
O130 Ce25 Ce41 . . . 98.7(2) no
O130 Ce25 Ce57 . . . 94.34(19) no
O130 Ce25 Ce60 . . . 159.2(2) no
O162 Ce25 Ce35 . . . 82.3(2) no
O162 Ce25 Ce41 . . . 33.0(2) no
O162 Ce25 Ce57 . . . 86.5(2) no
O162 Ce25 Ce60 . . . 84.0(3) no
O162 Ce25 O15 . . . 71.9(3) no
O162 Ce25 O24 . . . 93.3(4) no
O162 Ce25 O78 . . . 96.4(3) no
O162 Ce25 O130 . . . 76.1(3) no
O162 Ce25 O203 . . . 73.0(3) no
O162 Ce25 O211 . . . 141.7(4) no
O162 Ce25 O286 . . . 150.1(4) no
O203 Ce25 Ce35 . . . 37.2(3) no
O203 Ce25 Ce41 . . . 98.2(3) no
O203 Ce25 Ce57 . . . 158.8(3) no
O203 Ce25 Ce60 . . . 93.9(3) no
O203 Ce25 O130 . . . 85.9(3) no
O203 Ce25 O211 . . . 82.4(4) no
O203 Ce25 O286 . . . 125.0(4) no
O211 Ce25 Ce35 . . . 95.6(3) no
O211 Ce25 Ce41 . . . 171.9(3) no
O211 Ce25 Ce57 . . . 118.0(3) no
O211 Ce25 Ce60 . . . 127.3(3) no
O211 Ce25 O130 . . . 73.3(3) no
O286 Ce25 Ce35 . . . 99.2(3) no
O286 Ce25 Ce41 . . . 117.2(3) no
O286 Ce25 Ce57 . . . 71.8(3) no
O286 Ce25 Ce60 . . . 71.9(3) no
O286 Ce25 O130 . . . 124.6(3) no
O286 Ce25 O211 . . . 68.1(4) no
Ce54 Ce26 Ce9 . . . 90.09(3) no
Ce54 Ce26 Ce66 . . . 60.95(2) no
Ce54 Ce26 Ce67 . . . 60.10(2) no
Ce66 Ce26 Ce9 . . . 59.41(2) no
Ce66 Ce26 Ce67 . . . 78.60(3) no
Ce67 Ce26 Ce9 . . . 137.18(3) no
O14 Ce26 Ce9 . . . 37.8(2) no
O14 Ce26 Ce54 . . . 98.6(2) no
O14 Ce26 Ce66 . . . 95.3(2) no
O14 Ce26 Ce67 . . . 158.2(2) no
O14 Ce26 O95 . . . 83.1(3) no
O14 Ce26 O143 . . . 123.2(4) no
O14 Ce26 O229 . . . 77.5(4) no
O62 Ce26 Ce9 . . . 80.9(2) no
O62 Ce26 Ce54 . . . 33.5(2) no
O62 Ce26 Ce66 . . . 83.7(2) no
O62 Ce26 Ce67 . . . 86.9(2) no
O62 Ce26 O14 . . . 71.6(3) no
O62 Ce26 O95 . . . 78.4(3) no
O62 Ce26 O143 . . . 151.6(4) no
O62 Ce26 O169 . . . 92.1(4) no
O62 Ce26 O173 . . . 98.5(4) no
O62 Ce26 O229 . . . 138.8(4) no
O62 Ce26 O290 . . . 71.5(3) no
O95 Ce26 Ce9 . . . 120.8(2) no
O95 Ce26 Ce54 . . . 101.1(2) no
O95 Ce26 Ce66 . . . 161.6(2) no
O95 Ce26 Ce67 . . . 96.2(2) no
O143 Ce26 Ce9 . . . 97.5(3) no
O143 Ce26 Ce54 . . . 118.6(3) no
O143 Ce26 Ce66 . . . 71.5(3) no
O143 Ce26 Ce67 . . . 75.0(3) no
O143 Ce26 O95 . . . 124.5(4) no
O169 Ce26 Ce9 . . . 30.3(3) no
O169 Ce26 Ce54 . . . 84.0(3) no
O169 Ce26 Ce66 . . . 32.7(3) no
O169 Ce26 Ce67 . . . 110.6(3) no
O169 Ce26 O14 . . . 68.1(3) no
O169 Ce26 O95 . . . 151.1(3) no
O169 Ce26 O143 . . . 74.6(4) no
O169 Ce26 O173 . . . 141.5(3) no
O169 Ce26 O229 . . . 101.0(4) no
O169 Ce26 O290 . . . 74.6(4) no
O173 Ce26 Ce9 . . . 171.2(2) no
O173 Ce26 Ce54 . . . 84.8(3) no
O173 Ce26 Ce66 . . . 111.8(2) no
O173 Ce26 Ce67 . . . 34.3(3) no
O173 Ce26 O14 . . . 150.2(3) no
O173 Ce26 O95 . . . 67.3(3) no
O173 Ce26 O143 . . . 78.8(4) no
O173 Ce26 O229 . . . 95.0(4) no
O173 Ce26 O290 . . . 74.0(4) no
O229 Ce26 Ce9 . . . 91.1(3) no
O229 Ce26 Ce54 . . . 171.7(3) no
O229 Ce26 Ce66 . . . 126.4(3) no
O229 Ce26 Ce67 . . . 123.0(3) no
O229 Ce26 O95 . . . 71.3(3) no
O229 Ce26 O143 . . . 69.4(4) no
O290 Ce26 Ce9 . . . 97.6(2) no
O290 Ce26 Ce54 . . . 38.1(2) no
O290 Ce26 Ce66 . . . 42.0(2) no
O290 Ce26 Ce67 . . . 39.9(2) no
O290 Ce26 O14 . . . 125.4(3) no
O290 Ce26 O95 . . . 126.0(3) no
O290 Ce26 O143 . . . 80.6(4) no
O290 Ce26 O229 . . . 149.6(4) no
Ce4 Ce27 Ce11 . . . 56.39(2) no
Ce12 Ce27 Ce4 . . . 87.33(2) no
Ce12 Ce27 Ce11 . . . 60.11(2) no
O7 Ce27 Ce4 . . . 79.9(2) no
O7 Ce27 Ce11 . . . 80.9(2) no
O7 Ce27 Ce12 . . . 30.9(2) no
O7 Ce27 O54 . . . 69.2(3) no
O7 Ce27 O102 . . . 90.1(3) no
O7 Ce27 O131 . . . 135.5(4) no
O7 Ce27 O159 . . . 138.1(4) no
O7 Ce27 O215 . . . 78.4(4) no
O7 Ce27 O220 . . . 68.1(3) no
O7 Ce27 O285 . . . 81.6(4) no
O7 Ce27 O402 . . . 136.2(4) no
O54 Ce27 Ce4 . . . 91.8(2) no
O54 Ce27 Ce11 . . . 39.0(2) no
O54 Ce27 Ce12 . . . 38.5(2) no
O54 Ce27 O402 . . . 120.8(4) no
O102 Ce27 Ce4 . . . 30.0(2) no
O102 Ce27 Ce11 . . . 30.3(2) no
O102 Ce27 Ce12 . . . 81.7(2) no
O102 Ce27 O54 . . . 69.1(3) no
O102 Ce27 O131 . . . 79.7(3) no
O102 Ce27 O159 . . . 77.8(3) no
O102 Ce27 O215 . . . 135.9(4) no
O102 Ce27 O220 . . . 68.1(3) no
O102 Ce27 O285 . . . 137.1(3) no
O102 Ce27 O402 . . . 133.6(4) no
O131 Ce27 Ce4 . . . 106.7(2) no
O131 Ce27 Ce11 . . . 68.7(2) no
O131 Ce27 Ce12 . . . 104.5(3) no
O131 Ce27 O54 . . . 66.6(3) no
O131 Ce27 O220 . . . 140.9(3) no
O131 Ce27 O402 . . . 67.3(4) no
O159 Ce27 Ce4 . . . 69.6(3) no
O159 Ce27 Ce11 . . . 103.9(3) no
O159 Ce27 Ce12 . . . 156.9(3) no
O159 Ce27 O54 . . . 137.6(4) no
O159 Ce27 O131 . . . 82.2(4) no
O159 Ce27 O215 . . . 82.9(4) no
O159 Ce27 O220 . . . 70.1(4) no
O159 Ce27 O402 . . . 66.5(4) no
O215 Ce27 Ce4 . . . 106.0(3) no
O215 Ce27 Ce11 . . . 155.1(3) no
O215 Ce27 Ce12 . . . 105.2(3) no
O215 Ce27 O54 . . . 139.6(3) no
O215 Ce27 O131 . . . 136.3(4) no
O215 Ce27 O220 . . . 68.1(4) no
O215 Ce27 O402 . . . 69.0(4) no
O220 Ce27 Ce4 . . . 38.20(17) no
O220 Ce27 Ce11 . . . 91.34(18) no
O220 Ce27 Ce12 . . . 92.5(2) no
O220 Ce27 O54 . . . 117.9(3) no
O220 Ce27 O402 . . . 121.3(4) no
O285 Ce27 Ce4 . . . 156.9(3) no
O285 Ce27 Ce11 . . . 107.0(3) no
O285 Ce27 Ce12 . . . 69.8(3) no
O285 Ce27 O54 . . . 68.6(3) no
O285 Ce27 O131 . . . 77.4(4) no
O285 Ce27 O159 . . . 133.2(4) no
O285 Ce27 O215 . . . 83.6(4) no
O285 Ce27 O220 . . . 141.7(3) no
O285 Ce27 O402 . . . 66.8(4) no
O402 Ce27 Ce4 . . . 136.1(3) no
O402 Ce27 Ce11 . . . 135.8(3) no
O402 Ce27 Ce12 . . . 136.5(3) no
Ce34 Ce28 Ce37 . . . 61.29(2) no
Ce34 Ce28 Ce55 . . . 60.49(2) no
Ce34 Ce28 Ce57 . . . 60.09(2) no
Ce55 Ce28 Ce37 . . . 90.20(2) no
Ce57 Ce28 Ce37 . . . 117.82(3) no
Ce57 Ce28 Ce55 . . . 78.40(2) no
O26 Ce28 Ce34 . . . 39.2(2) no
O26 Ce28 Ce37 . . . 97.9(3) no
O26 Ce28 Ce55 . . . 41.8(2) no
O26 Ce28 Ce57 . . . 39.2(2) no
O26 Ce28 O130 . . . 124.4(3) no
O26 Ce28 O190 . . . 78.5(4) no
O26 Ce28 O196 . . . 125.9(3) no
O26 Ce28 O293 . . . 149.7(4) no
O33 Ce28 Ce34 . . . 34.0(2) no
O33 Ce28 Ce37 . . . 30.3(2) no
O33 Ce28 Ce55 . . . 83.3(3) no
O33 Ce28 Ce57 . . . 87.5(2) no
O33 Ce28 O26 . . . 73.1(3) no
O33 Ce28 O78 . . . 97.9(4) no
O33 Ce28 O130 . . . 76.5(3) no
O33 Ce28 O139 . . . 93.0(4) no
O33 Ce28 O190 . . . 151.4(4) no
O33 Ce28 O196 . . . 71.2(3) no
O33 Ce28 O293 . . . 137.0(4) no
O78 Ce28 Ce34 . . . 83.3(3) no
O78 Ce28 Ce37 . . . 122.9(3) no
O78 Ce28 Ce55 . . . 110.6(3) no
O78 Ce28 Ce57 . . . 32.9(3) no
O78 Ce28 O26 . . . 72.1(4) no
O78 Ce28 O130 . . . 67.4(3) no
O78 Ce28 O139 . . . 138.5(4) no
O78 Ce28 O190 . . . 76.5(4) no
O78 Ce28 O196 . . . 151.6(3) no
O78 Ce28 O293 . . . 101.3(4) no
O130 Ce28 Ce34 . . . 98.9(2) no
O130 Ce28 Ce37 . . . 75.2(2) no
O130 Ce28 Ce55 . . . 159.1(2) no
O130 Ce28 Ce57 . . . 95.0(2) no
O139 Ce28 Ce34 . . . 83.9(2) no
O139 Ce28 Ce37 . . . 83.7(2) no
O139 Ce28 Ce55 . . . 31.4(2) no
O139 Ce28 Ce57 . . . 108.6(2) no
O139 Ce28 O26 . . . 73.1(3) no
O139 Ce28 O130 . . . 153.9(3) no
O139 Ce28 O190 . . . 74.9(4) no
O139 Ce28 O196 . . . 69.6(3) no
O139 Ce28 O293 . . . 97.3(4) no
O190 Ce28 Ce34 . . . 117.7(3) no
O190 Ce28 Ce37 . . . 158.5(3) no
O190 Ce28 Ce55 . . . 72.9(3) no
O190 Ce28 Ce57 . . . 72.5(3) no
O190 Ce28 O130 . . . 124.4(3) no
O190 Ce28 O293 . . . 71.1(4) no
O196 Ce28 Ce34 . . . 98.5(2) no
O196 Ce28 Ce37 . . . 41.1(2) no
O196 Ce28 Ce55 . . . 94.5(2) no
O196 Ce28 Ce57 . . . 158.3(2) no
O196 Ce28 O130 . . . 84.4(3) no
O196 Ce28 O190 . . . 125.3(4) no
O196 Ce28 O293 . . . 73.7(4) no
O293 Ce28 Ce34 . . . 171.0(3) no
O293 Ce28 Ce37 . . . 109.9(3) no
O293 Ce28 Ce55 . . . 123.8(3) no
O293 Ce28 Ce57 . . . 127.3(3) no
O293 Ce28 O130 . . . 76.1(4) no
Ce5 Ce29 Ce2 . . . 58.46(2) no
Ce5 Ce29 Ce6 . . . 91.17(2) no
Ce5 Ce29 Ce10 . . . 62.50(2) no
Ce6 Ce29 Ce2 . . . 62.33(2) no
Ce6 Ce29 Ce10 . . . 58.75(2) no
Ce10 Ce29 Ce2 . . . 90.65(2) no
O21 Ce29 Ce2 . . . 83.1(2) no
O21 Ce29 Ce5 . . . 33.7(3) no
O21 Ce29 Ce6 . . . 83.1(2) no
O21 Ce29 Ce10 . . . 32.9(2) no
O21 Ce29 O23 . . . 70.7(3) no
O21 Ce29 O42 . . . 94.1(3) no
O21 Ce29 O70 . . . 87.9(3) no
O21 Ce29 O76 . . . 72.2(3) no
O21 Ce29 O124 . . . 145.8(4) no
O21 Ce29 O155 . . . 144.9(3) no
O21 Ce29 O294 . . . 82.8(4) no
O23 Ce29 Ce2 . . . 97.7(2) no
O23 Ce29 Ce5 . . . 97.4(2) no
O23 Ce29 Ce6 . . . 38.8(2) no
O23 Ce29 Ce10 . . . 37.8(2) no
O23 Ce29 O76 . . . 124.0(3) no
O42 Ce29 Ce2 . . . 32.2(2) no
O42 Ce29 Ce5 . . . 82.6(2) no
O42 Ce29 Ce6 . . . 34.2(2) no
O42 Ce29 Ce10 . . . 83.6(2) no
O42 Ce29 O23 . . . 73.0(3) no
O42 Ce29 O70 . . . 143.3(4) no
O42 Ce29 O76 . . . 69.5(3) no
O42 Ce29 O124 . . . 81.8(3) no
O42 Ce29 O155 . . . 88.4(4) no
O42 Ce29 O294 . . . 146.9(3) no
O70 Ce29 Ce2 . . . 112.5(3) no
O70 Ce29 Ce5 . . . 79.0(2) no
O70 Ce29 Ce6 . . . 170.0(2) no
O70 Ce29 Ce10 . . . 114.4(2) no
O70 Ce29 O23 . . . 140.6(3) no
O70 Ce29 O76 . . . 76.4(3) no
O70 Ce29 O124 . . . 76.4(3) no
O70 Ce29 O294 . . . 69.8(4) no
O76 Ce29 Ce2 . . . 37.3(2) no
O76 Ce29 Ce5 . . . 38.5(2) no
O76 Ce29 Ce6 . . . 96.8(2) no
O76 Ce29 Ce10 . . . 97.5(2) no
O124 Ce29 Ce2 . . . 75.4(2) no
O124 Ce29 Ce5 . . . 112.4(3) no
O124 Ce29 Ce6 . . . 109.0(2) no
O124 Ce29 Ce10 . . . 165.2(2) no
O124 Ce29 O23 . . . 137.8(3) no
O124 Ce29 O76 . . . 74.6(3) no
O155 Ce29 Ce2 . . . 114.3(3) no
O155 Ce29 Ce5 . . . 170.4(2) no
O155 Ce29 Ce6 . . . 79.5(2) no
O155 Ce29 Ce10 . . . 113.4(2) no
O155 Ce29 O23 . . . 76.7(3) no
O155 Ce29 O70 . . . 110.4(3) no
O155 Ce29 O76 . . . 139.8(3) no
O155 Ce29 O124 . . . 69.2(4) no
O155 Ce29 O294 . . . 76.4(4) no
O294 Ce29 Ce2 . . . 165.7(2) no
O294 Ce29 Ce5 . . . 109.7(3) no
O294 Ce29 Ce6 . . . 113.0(2) no
O294 Ce29 Ce10 . . . 76.0(2) no
O294 Ce29 O23 . . . 74.9(3) no
O294 Ce29 O76 . . . 138.3(3) no
O294 Ce29 O124 . . . 118.3(3) no
Ce15 Ce30 Ce17 . . . 87.61(2) no
Ce15 Ce30 Ce19 . . . 60.26(2) no
Ce19 Ce30 Ce17 . . . 57.07(2) no
O64 Ce30 Ce15 . . . 92.32(17) no
O64 Ce30 Ce17 . . . 38.6(2) no
O64 Ce30 Ce19 . . . 92.26(19) no
O64 Ce30 O370 . . . 119.9(3) no
O66 Ce30 Ce15 . . . 81.6(2) no
O66 Ce30 Ce17 . . . 29.7(2) no
O66 Ce30 Ce19 . . . 30.8(2) no
O66 Ce30 O64 . . . 68.2(3) no
O66 Ce30 O67 . . . 89.8(3) no
O66 Ce30 O104 . . . 69.6(3) no
O66 Ce30 O110 . . . 139.0(3) no
O66 Ce30 O171 . . . 79.7(3) no
O66 Ce30 O302 . . . 134.8(4) no
O66 Ce30 O357 . . . 80.1(4) no
O66 Ce30 O370 . . . 134.6(4) no
O67 Ce30 Ce15 . . . 30.2(2) no
O67 Ce30 Ce17 . . . 80.5(2) no
O67 Ce30 Ce19 . . . 80.8(2) no
O67 Ce30 O64 . . . 68.4(3) no
O67 Ce30 O104 . . . 68.7(3) no
O67 Ce30 O110 . . . 79.8(3) no
O67 Ce30 O171 . . . 137.3(4) no
O67 Ce30 O302 . . . 81.4(3) no
O67 Ce30 O357 . . . 139.7(4) no
O67 Ce30 O370 . . . 135.6(4) no
O104 Ce30 Ce15 . . . 38.7(2) no
O104 Ce30 Ce17 . . . 92.5(2) no
O104 Ce30 Ce19 . . . 39.0(2) no
O104 Ce30 O64 . . . 118.4(3) no
O104 Ce30 O370 . . . 121.6(3) no
O110 Ce30 Ce15 . . . 69.6(2) no
O110 Ce30 Ce17 . . . 157.2(2) no
O110 Ce30 Ce19 . . . 108.2(2) no
O110 Ce30 O64 . . . 138.8(3) no
O110 Ce30 O104 . . . 69.7(3) no
O110 Ce30 O302 . . . 83.0(4) no
O110 Ce30 O370 . . . 67.3(4) no
O171 Ce30 Ce15 . . . 157.5(3) no
O171 Ce30 Ce17 . . . 70.0(3) no
O171 Ce30 Ce19 . . . 106.3(3) no
O171 Ce30 O64 . . . 69.2(3) no
O171 Ce30 O104 . . . 140.3(4) no
O171 Ce30 O110 . . . 132.8(3) no
O171 Ce30 O302 . . . 77.6(4) no
O171 Ce30 O357 . . . 79.3(5) no
O171 Ce30 O370 . . . 65.5(4) no
O302 Ce30 Ce15 . . . 107.8(3) no
O302 Ce30 Ce17 . . . 105.3(3) no
O302 Ce30 Ce19 . . . 156.8(3) no
O302 Ce30 O64 . . . 67.4(3) no
O302 Ce30 O104 . . . 142.1(4) no
O302 Ce30 O370 . . . 66.2(4) no
O357 Ce30 Ce15 . . . 109.6(3) no
O357 Ce30 Ce17 . . . 105.4(3) no
O357 Ce30 Ce19 . . . 70.6(3) no
O357 Ce30 O64 . . . 138.3(4) no
O357 Ce30 O104 . . . 71.3(4) no
O357 Ce30 O110 . . . 82.8(5) no
O357 Ce30 O302 . . . 132.0(4) no
O357 Ce30 O370 . . . 66.0(4) no
O370 Ce30 Ce15 . . . 136.9(3) no
O370 Ce30 Ce17 . . . 135.5(3) no
O370 Ce30 Ce19 . . . 136.6(3) no
Ce9 Ce31 Ce22 . . . 61.99(2) no
Ce9 Ce31 Ce38 . . . 60.48(2) no
Ce9 Ce31 Ce66 . . . 61.22(2) no
Ce38 Ce31 Ce22 . . . 118.80(3) no
Ce38 Ce31 Ce66 . . . 78.90(3) no
Ce66 Ce31 Ce22 . . . 91.08(3) no
O57 Ce31 Ce9 . . . 99.0(2) no
O57 Ce31 Ce22 . . . 74.2(2) no
O57 Ce31 Ce38 . . . 95.7(2) no
O57 Ce31 Ce66 . . . 159.7(2) no
O80 Ce31 Ce9 . . . 98.7(2) no
O80 Ce31 Ce22 . . . 40.8(2) no
O80 Ce31 Ce38 . . . 158.9(2) no
O80 Ce31 Ce66 . . . 94.4(2) no
O80 Ce31 O57 . . . 83.6(3) no
O80 Ce31 O219 . . . 125.4(3) no
O80 Ce31 O336 . . . 80.0(4) no
O96 Ce31 Ce9 . . . 33.8(2) no
O96 Ce31 Ce22 . . . 31.8(2) no
O96 Ce31 Ce38 . . . 87.0(3) no
O96 Ce31 Ce66 . . . 84.7(2) no
O96 Ce31 O57 . . . 75.3(3) no
O96 Ce31 O80 . . . 72.4(3) no
O96 Ce31 O178 . . . 98.2(3) no
O96 Ce31 O202 . . . 73.6(3) no
O96 Ce31 O219 . . . 150.7(4) no
O96 Ce31 O267 . . . 95.4(4) no
O96 Ce31 O336 . . . 137.8(4) no
O178 Ce31 Ce9 . . . 85.3(2) no
O178 Ce31 Ce22 . . . 124.2(2) no
O178 Ce31 Ce38 . . . 34.4(2) no
O178 Ce31 Ce66 . . . 112.2(2) no
O178 Ce31 O57 . . . 67.5(3) no
O178 Ce31 O80 . . . 151.2(3) no
O178 Ce31 O202 . . . 74.8(3) no
O178 Ce31 O219 . . . 75.7(3) no
O178 Ce31 O267 . . . 140.0(4) no
O178 Ce31 O336 . . . 90.8(4) no
O202 Ce31 Ce9 . . . 39.8(2) no
O202 Ce31 Ce22 . . . 98.7(2) no
O202 Ce31 Ce38 . . . 40.4(2) no
O202 Ce31 Ce66 . . . 41.1(2) no
O202 Ce31 O57 . . . 126.1(3) no
O202 Ce31 O80 . . . 125.4(3) no
O202 Ce31 O219 . . . 77.2(4) no
O202 Ce31 O336 . . . 147.9(4) no
O219 Ce31 Ce9 . . . 117.0(3) no
O219 Ce31 Ce22 . . . 158.4(3) no
O219 Ce31 Ce38 . . . 71.7(3) no
O219 Ce31 Ce66 . . . 71.8(3) no
O219 Ce31 O57 . . . 125.5(4) no
O267 Ce31 Ce9 . . . 85.5(3) no
O267 Ce31 Ce22 . . . 84.3(3) no
O267 Ce31 Ce38 . . . 109.8(3) no
O267 Ce31 Ce66 . . . 32.3(3) no
O267 Ce31 O57 . . . 152.5(3) no
O267 Ce31 O80 . . . 68.8(4) no
O267 Ce31 O202 . . . 73.4(4) no
O267 Ce31 O219 . . . 74.1(4) no
O267 Ce31 O336 . . . 103.7(4) no
O336 Ce31 Ce9 . . . 169.3(3) no
O336 Ce31 Ce22 . . . 113.0(3) no
O336 Ce31 Ce38 . . . 119.7(3) no
O336 Ce31 Ce66 . . . 129.3(3) no
O336 Ce31 O57 . . . 70.4(4) no
O336 Ce31 O219 . . . 71.4(4) no
Ce13 Ce32 Ce45 . . . 95.43(3) no
Ce13 Ce32 Ce50 . . . 59.73(2) no
Ce24 Ce32 Ce13 . . . 66.52(2) no
Ce24 Ce32 Ce45 . . . 59.31(2) no
Ce24 Ce32 Ce50 . . . 94.31(3) no
Ce45 Ce32 Ce50 . . . 65.34(2) no
O31 Ce32 Ce13 . . . 34.6(2) no
O31 Ce32 Ce24 . . . 34.6(2) no
O31 Ce32 Ce45 . . . 84.1(2) no
O31 Ce32 Ce50 . . . 83.8(3) no
O31 Ce32 O48 . . . 72.8(3) no
O31 Ce32 O101 . . . 73.0(3) no
O31 Ce32 O108 . . . 91.9(4) no
O31 Ce32 O149 . . . 88.9(3) no
O31 Ce32 O157 . . . 148.4(4) no
O31 Ce32 O180 . . . 146.8(4) no
O31 Ce32 O271 . . . 85.1(3) no
O48 Ce32 Ce13 . . . 102.0(2) no
O48 Ce32 Ce24 . . . 38.19(19) no
O48 Ce32 Ce45 . . . 38.7(2) no
O48 Ce32 Ce50 . . . 101.0(2) no
O48 Ce32 O157 . . . 135.6(3) no
O48 Ce32 O271 . . . 75.9(3) no
O101 Ce32 Ce13 . . . 38.6(2) no
O101 Ce32 Ce24 . . . 101.6(2) no
O101 Ce32 Ce45 . . . 100.9(2) no
O101 Ce32 Ce50 . . . 38.3(2) no
O101 Ce32 O48 . . . 128.7(3) no
O101 Ce32 O149 . . . 75.3(3) no
O101 Ce32 O157 . . . 76.6(3) no
O101 Ce32 O180 . . . 138.5(4) no
O101 Ce32 O271 . . . 136.6(3) no
O108 Ce32 Ce13 . . . 83.2(3) no
O108 Ce32 Ce24 . . . 82.8(3) no
O108 Ce32 Ce45 . . . 34.2(3) no
O108 Ce32 Ce50 . . . 33.4(3) no
O108 Ce32 O48 . . . 72.7(3) no
O108 Ce32 O101 . . . 71.5(3) no
O108 Ce32 O149 . . . 145.0(4) no
O108 Ce32 O157 . . . 86.3(4) no
O108 Ce32 O180 . . . 91.0(4) no
O108 Ce32 O271 . . . 147.9(3) no
O149 Ce32 Ce13 . . . 77.8(2) no
O149 Ce32 Ce24 . . . 115.0(3) no
O149 Ce32 Ce45 . . . 172.8(2) no
O149 Ce32 Ce50 . . . 112.3(2) no
O149 Ce32 O48 . . . 139.9(3) no
O149 Ce32 O157 . . . 75.3(4) no
O149 Ce32 O180 . . . 107.0(4) no
O149 Ce32 O271 . . . 67.1(3) no
O157 Ce32 Ce13 . . . 114.1(3) no
O157 Ce32 Ce24 . . . 169.0(3) no
O157 Ce32 Ce45 . . . 110.1(3) no
O157 Ce32 Ce50 . . . 77.5(3) no
O157 Ce32 O271 . . . 112.3(3) no
O180 Ce32 Ce13 . . . 174.2(3) no
O180 Ce32 Ce24 . . . 113.4(3) no
O180 Ce32 Ce45 . . . 79.9(3) no
O180 Ce32 Ce50 . . . 114.8(3) no
O180 Ce32 O48 . . . 76.7(3) no
O180 Ce32 O157 . . . 64.7(4) no
O180 Ce32 O271 . . . 75.2(4) no
O271 Ce32 Ce13 . . . 110.1(2) no
O271 Ce32 Ce24 . . . 76.6(2) no
O271 Ce32 Ce45 . . . 113.8(2) no
O271 Ce32 Ce50 . . . 168.9(2) no
Ce11 Ce33 Ce4 . . . 58.68(2) no
Ce11 Ce33 Ce12 . . . 62.37(2) no
Ce12 Ce33 Ce4 . . . 90.31(2) no
Ce14 Ce33 Ce4 . . . 62.59(2) no
Ce14 Ce33 Ce11 . . . 92.06(3) no
Ce14 Ce33 Ce12 . . . 59.04(2) no
O3 Ce33 Ce4 . . . 33.3(2) no
O3 Ce33 Ce11 . . . 83.9(2) no
O3 Ce33 Ce12 . . . 83.4(2) no
O3 Ce33 Ce14 . . . 33.6(2) no
O3 Ce33 O10 . . . 146.6(3) no
O3 Ce33 O29 . . . 71.4(3) no
O3 Ce33 O55 . . . 83.0(3) no
O3 Ce33 O97 . . . 143.1(3) no
O3 Ce33 O105 . . . 72.3(3) no
O3 Ce33 O163 . . . 87.8(3) no
O10 Ce33 Ce4 . . . 164.9(3) no
O10 Ce33 Ce11 . . . 108.4(3) no
O10 Ce33 Ce12 . . . 75.9(2) no
O10 Ce33 Ce14 . . . 113.4(2) no
O10 Ce33 O29 . . . 136.5(3) no
O10 Ce33 O55 . . . 117.9(3) no
O10 Ce33 O105 . . . 75.3(3) no
O17 Ce33 Ce4 . . . 84.1(3) no
O17 Ce33 Ce11 . . . 33.5(3) no
O17 Ce33 Ce12 . . . 34.0(2) no
O17 Ce33 Ce14 . . . 85.4(2) no
O17 Ce33 O3 . . . 96.3(4) no
O17 Ce33 O10 . . . 81.0(4) no
O17 Ce33 O29 . . . 71.8(3) no
O17 Ce33 O55 . . . 144.9(3) no
O17 Ce33 O97 . . . 85.3(4) no
O17 Ce33 O105 . . . 72.1(3) no
O17 Ce33 O163 . . . 145.2(3) no
O29 Ce33 Ce4 . . . 38.13(16) no
O29 Ce33 Ce11 . . . 38.27(17) no
O29 Ce33 Ce12 . . . 97.26(18) no
O29 Ce33 Ce14 . . . 97.92(16) no
O55 Ce33 Ce4 . . . 76.2(2) no
O55 Ce33 Ce11 . . . 112.3(2) no
O55 Ce33 Ce12 . . . 165.9(2) no
O55 Ce33 Ce14 . . . 109.8(2) no
O55 Ce33 O29 . . . 74.8(3) no
O55 Ce33 O105 . . . 138.6(3) no
O97 Ce33 Ce4 . . . 111.2(2) no
O97 Ce33 Ce11 . . . 77.4(2) no
O97 Ce33 Ce12 . . . 114.1(3) no
O97 Ce33 Ce14 . . . 169.4(2) no
O97 Ce33 O10 . . . 70.1(3) no
O97 Ce33 O29 . . . 74.2(3) no
O97 Ce33 O55 . . . 75.5(3) no
O97 Ce33 O105 . . . 141.1(3) no
O97 Ce33 O163 . . . 111.5(3) no
O105 Ce33 Ce4 . . . 97.7(2) no
O105 Ce33 Ce11 . . . 97.7(2) no
O105 Ce33 Ce12 . . . 38.0(2) no
O105 Ce33 Ce14 . . . 38.8(2) no
O105 Ce33 O29 . . . 124.5(3) no
O163 Ce33 Ce4 . . . 114.9(3) no
O163 Ce33 Ce11 . . . 171.0(2) no
O163 Ce33 Ce12 . . . 113.3(2) no
O163 Ce33 Ce14 . . . 79.1(2) no
O163 Ce33 O10 . . . 76.9(4) no
O163 Ce33 O29 . . . 140.9(3) no
O163 Ce33 O55 . . . 69.9(3) no
O163 Ce33 O105 . . . 76.4(3) no
Ce28 Ce34 Ce50 . . . 89.88(3) no
Ce28 Ce34 Ce55 . . . 60.23(2) no
Ce28 Ce34 Ce57 . . . 60.09(2) no
Ce55 Ce34 Ce50 . . . 58.69(2) no
Ce57 Ce34 Ce50 . . . 136.33(3) no
Ce57 Ce34 Ce55 . . . 78.28(3) no
O26 Ce34 Ce28 . . . 38.6(2) no
O26 Ce34 Ce50 . . . 97.2(2) no
O26 Ce34 Ce55 . . . 41.7(2) no
O26 Ce34 Ce57 . . . 39.4(2) no
O26 Ce34 O117 . . . 77.5(4) no
O26 Ce34 O210 . . . 124.7(3) no
O26 Ce34 O228 . . . 124.2(3) no
O26 Ce34 O372 . . . 148.8(4) no
O27 Ce34 Ce28 . . . 82.7(2) no
O27 Ce34 Ce50 . . . 31.8(3) no
O27 Ce34 Ce55 . . . 30.6(3) no
O27 Ce34 Ce57 . . . 107.9(3) no
O27 Ce34 O26 . . . 72.3(3) no
O27 Ce34 O117 . . . 74.8(4) no
O27 Ce34 O210 . . . 69.8(3) no
O27 Ce34 O228 . . . 152.9(3) no
O27 Ce34 O372 . . . 101.2(5) no
O33 Ce34 Ce28 . . . 32.8(2) no
O33 Ce34 Ce50 . . . 81.1(3) no
O33 Ce34 Ce55 . . . 82.2(3) no
O33 Ce34 Ce57 . . . 86.5(2) no
O33 Ce34 O26 . . . 71.3(3) no
O33 Ce34 O27 . . . 91.7(3) no
O33 Ce34 O117 . . . 148.6(4) no
O33 Ce34 O210 . . . 71.1(3) no
O33 Ce34 O228 . . . 76.2(4) no
O33 Ce34 O372 . . . 139.9(4) no
O40 Ce34 Ce28 . . . 82.3(2) no
O40 Ce34 Ce50 . . . 169.3(2) no
O40 Ce34 Ce55 . . . 110.8(2) no
O40 Ce34 Ce57 . . . 33.0(2) no
O40 Ce34 O26 . . . 72.1(3) no
O40 Ce34 O27 . . . 138.8(4) no
O40 Ce34 O33 . . . 96.0(3) no
O40 Ce34 O117 . . . 77.9(4) no
O40 Ce34 O210 . . . 150.3(3) no
O40 Ce34 O228 . . . 67.5(3) no
O40 Ce34 O372 . . . 98.6(4) no
O117 Ce34 Ce28 . . . 116.1(3) no
O117 Ce34 Ce50 . . . 99.2(3) no
O117 Ce34 Ce55 . . . 71.7(3) no
O117 Ce34 Ce57 . . . 71.6(3) no
O117 Ce34 O228 . . . 126.9(4) no
O210 Ce34 Ce28 . . . 97.5(2) no
O210 Ce34 Ce50 . . . 38.0(2) no
O210 Ce34 Ce55 . . . 94.2(2) no
O210 Ce34 Ce57 . . . 157.3(2) no
O210 Ce34 O117 . . . 126.7(4) no
O210 Ce34 O228 . . . 83.2(3) no
O228 Ce34 Ce28 . . . 98.3(2) no
O228 Ce34 Ce50 . . . 121.2(2) no
O228 Ce34 Ce55 . . . 158.0(2) no
O228 Ce34 Ce57 . . . 95.7(2) no
O372 Ce34 Ce28 . . . 172.5(3) no
O372 Ce34 Ce50 . . . 90.1(4) no
O372 Ce34 Ce55 . . . 125.7(4) no
O372 Ce34 Ce57 . . . 123.8(4) no
O372 Ce34 O117 . . . 71.3(4) no
O372 Ce34 O210 . . . 77.9(4) no
O372 Ce34 O228 . . . 75.3(4) no
Ce16 Ce35 Ce25 . . . 90.21(2) no
Ce16 Ce35 Ce44 . . . 60.27(2) no
Ce16 Ce35 Ce60 . . . 60.89(2) no
Ce44 Ce35 Ce25 . . . 136.30(3) no
Ce44 Ce35 Ce60 . . . 78.23(3) no
Ce60 Ce35 Ce25 . . . 58.67(2) no
O24 Ce35 Ce16 . . . 83.9(3) no
O24 Ce35 Ce25 . . . 30.5(2) no
O24 Ce35 Ce44 . . . 109.2(2) no
O24 Ce35 Ce60 . . . 31.9(3) no
O24 Ce35 O65 . . . 137.9(3) no
O24 Ce35 O84 . . . 72.9(4) no
O24 Ce35 O175 . . . 153.5(3) no
O24 Ce35 O203 . . . 67.4(3) no
O24 Ce35 O255 . . . 75.6(4) no
O24 Ce35 O381 . . . 104.0(5) no
O65 Ce35 Ce16 . . . 83.3(2) no
O65 Ce35 Ce25 . . . 167.9(2) no
O65 Ce35 Ce44 . . . 32.0(2) no
O65 Ce35 Ce60 . . . 109.2(2) no
O65 Ce35 O84 . . . 72.3(3) no
O65 Ce35 O175 . . . 68.5(3) no
O65 Ce35 O203 . . . 154.3(3) no
O65 Ce35 O255 . . . 75.1(3) no
O65 Ce35 O381 . . . 94.9(4) no
O84 Ce35 Ce16 . . . 38.4(2) no
O84 Ce35 Ce25 . . . 96.3(2) no
O84 Ce35 Ce44 . . . 40.4(2) no
O84 Ce35 Ce60 . . . 41.0(3) no
O84 Ce35 O175 . . . 125.2(3) no
O84 Ce35 O203 . . . 124.1(3) no
O84 Ce35 O255 . . . 78.8(3) no
O84 Ce35 O381 . . . 150.3(4) no
O121 Ce35 Ce16 . . . 34.9(3) no
O121 Ce35 Ce25 . . . 82.9(3) no
O121 Ce35 Ce44 . . . 87.4(3) no
O121 Ce35 Ce60 . . . 85.7(3) no
O121 Ce35 O24 . . . 94.6(4) no
O121 Ce35 O65 . . . 97.3(4) no
O121 Ce35 O84 . . . 73.3(3) no
O121 Ce35 O175 . . . 75.5(3) no
O121 Ce35 O203 . . . 72.4(4) no
O121 Ce35 O255 . . . 152.0(4) no
O121 Ce35 O381 . . . 136.0(4) no
O175 Ce35 Ce16 . . . 99.7(2) no
O175 Ce35 Ce25 . . . 122.9(2) no
O175 Ce35 Ce44 . . . 95.1(2) no
O175 Ce35 Ce60 . . . 160.4(2) no
O203 Ce35 Ce16 . . . 98.8(3) no
O203 Ce35 Ce25 . . . 36.9(3) no
O203 Ce35 Ce44 . . . 158.9(3) no
O203 Ce35 Ce60 . . . 93.7(3) no
O203 Ce35 O175 . . . 86.0(3) no
O203 Ce35 O255 . . . 124.6(4) no
O203 Ce35 O381 . . . 78.5(4) no
O255 Ce35 Ce16 . . . 117.2(3) no
O255 Ce35 Ce25 . . . 99.1(3) no
O255 Ce35 Ce44 . . . 71.8(3) no
O255 Ce35 Ce60 . . . 72.1(3) no
O255 Ce35 O175 . . . 123.7(3) no
O381 Ce35 Ce16 . . . 169.5(4) no
O381 Ce35 Ce25 . . . 93.3(4) no
O381 Ce35 Ce44 . . . 121.7(4) no
O381 Ce35 Ce60 . . . 129.1(4) no
O381 Ce35 O175 . . . 70.2(4) no
O381 Ce35 O255 . . . 72.0(4) no
Ce59 Ce36 Ce53 . . . 86.96(3) no
Ce59 Ce36 Ce61 . . . 60.77(2) no
Ce61 Ce36 Ce53 . . . 56.31(2) no
O8 Ce36 Ce53 . . . 79.7(3) no
O8 Ce36 Ce59 . . . 30.3(3) no
O8 Ce36 Ce61 . . . 81.1(2) no
O8 Ce36 O83 . . . 69.3(3) no
O8 Ce36 O145 . . . 67.6(4) no
O8 Ce36 O150 . . . 140.9(4) no
O8 Ce36 O174 . . . 79.1(4) no
O8 Ce36 O181 . . . 131.8(4) no
O8 Ce36 O319 . . . 79.7(4) no
O8 Ce36 O335 . . . 137.5(4) no
O83 Ce36 Ce53 . . . 91.0(2) no
O83 Ce36 Ce59 . . . 39.3(2) no
O83 Ce36 Ce61 . . . 38.4(2) no
O83 Ce36 O145 . . . 117.5(3) no
O83 Ce36 O335 . . . 121.7(4) no
O122 Ce36 Ce53 . . . 30.0(2) no
O122 Ce36 Ce59 . . . 81.2(2) no
O122 Ce36 Ce61 . . . 29.8(2) no
O122 Ce36 O8 . . . 89.5(3) no
O122 Ce36 O83 . . . 68.0(3) no
O122 Ce36 O145 . . . 68.7(3) no
O122 Ce36 O150 . . . 76.6(4) no
O122 Ce36 O174 . . . 137.8(4) no
O122 Ce36 O181 . . . 82.1(3) no
O122 Ce36 O319 . . . 136.5(4) no
O122 Ce36 O335 . . . 132.9(4) no
O145 Ce36 Ce53 . . . 38.8(2) no
O145 Ce36 Ce59 . . . 91.7(2) no
O145 Ce36 Ce61 . . . 91.8(2) no
O150 Ce36 Ce53 . . . 101.9(3) no
O150 Ce36 Ce59 . . . 110.7(3) no
O150 Ce36 Ce61 . . . 68.7(2) no
O150 Ce36 O83 . . . 71.6(3) no
O150 Ce36 O145 . . . 135.0(4) no
O150 Ce36 O181 . . . 82.9(4) no
O150 Ce36 O319 . . . 85.7(4) no
O150 Ce36 O335 . . . 66.3(4) no
O174 Ce36 Ce53 . . . 107.9(3) no
O174 Ce36 Ce59 . . . 104.7(3) no
O174 Ce36 Ce61 . . . 156.8(3) no
O174 Ce36 O83 . . . 139.5(3) no
O174 Ce36 O145 . . . 69.4(3) no
O174 Ce36 O150 . . . 134.4(3) no
O174 Ce36 O181 . . . 76.2(3) no
O174 Ce36 O319 . . . 81.5(4) no
O174 Ce36 O335 . . . 68.2(4) no
O181 Ce36 Ce53 . . . 69.6(2) no
O181 Ce36 Ce59 . . . 155.2(2) no
O181 Ce36 Ce61 . . . 109.0(2) no
O181 Ce36 O83 . . . 144.1(3) no
O181 Ce36 O145 . . . 65.1(3) no
O181 Ce36 O335 . . . 66.0(4) no
O319 Ce36 Ce53 . . . 155.2(3) no
O319 Ce36 Ce59 . . . 68.4(3) no
O319 Ce36 Ce61 . . . 106.8(3) no
O319 Ce36 O83 . . . 68.8(4) no
O319 Ce36 O145 . . . 139.3(3) no
O319 Ce36 O181 . . . 135.1(3) no
O319 Ce36 O335 . . . 69.6(4) no
O335 Ce36 Ce53 . . . 135.1(3) no
O335 Ce36 Ce59 . . . 137.9(3) no
O335 Ce36 Ce61 . . . 135.0(3) no
O335 Ce36 O145 . . . 120.8(4) no
Ce34 Ce37 Ce28 . . . 57.24(2) no
Ce50 Ce37 Ce28 . . . 87.73(2) no
Ce50 Ce37 Ce34 . . . 60.14(2) no
O33 Ce37 Ce28 . . . 29.1(2) no
O33 Ce37 Ce34 . . . 31.2(2) no
O33 Ce37 Ce50 . . . 81.3(2) no
O33 Ce37 O118 . . . 79.2(4) no
O33 Ce37 O196 . . . 67.2(3) no
O33 Ce37 O206 . . . 134.9(3) no
O33 Ce37 O210 . . . 69.9(3) no
O33 Ce37 O249 . . . 81.9(3) no
O33 Ce37 O298 . . . 136.0(4) no
O33 Ce37 O317 . . . 140.1(4) no
O116 Ce37 Ce28 . . . 80.9(2) no
O116 Ce37 Ce34 . . . 81.6(2) no
O116 Ce37 Ce50 . . . 31.0(2) no
O116 Ce37 O33 . . . 89.8(3) no
O116 Ce37 O118 . . . 140.3(3) no
O116 Ce37 O196 . . . 68.4(3) no
O116 Ce37 O206 . . . 79.7(3) no
O116 Ce37 O210 . . . 69.4(3) no
O116 Ce37 O249 . . . 138.7(4) no
O116 Ce37 O298 . . . 134.1(3) no
O116 Ce37 O317 . . . 79.3(3) no
O118 Ce37 Ce28 . . . 71.1(3) no
O118 Ce37 Ce34 . . . 104.7(3) no
O118 Ce37 Ce50 . . . 158.7(3) no
O118 Ce37 O196 . . . 72.2(3) no
O118 Ce37 O206 . . . 81.6(4) no
O118 Ce37 O210 . . . 137.6(3) no
O118 Ce37 O298 . . . 65.5(4) no
O118 Ce37 O317 . . . 131.5(4) no
O196 Ce37 Ce28 . . . 38.3(2) no
O196 Ce37 Ce34 . . . 92.1(2) no
O196 Ce37 Ce50 . . . 92.46(19) no
O196 Ce37 O298 . . . 120.9(3) no
O206 Ce37 Ce28 . . . 105.9(2) no
O206 Ce37 Ce34 . . . 156.7(2) no
O206 Ce37 Ce50 . . . 106.8(2) no
O206 Ce37 O196 . . . 68.2(3) no
O206 Ce37 O210 . . . 140.8(3) no
O206 Ce37 O298 . . . 66.5(4) no
O210 Ce37 Ce28 . . . 92.6(2) no
O210 Ce37 Ce34 . . . 39.0(2) no
O210 Ce37 Ce50 . . . 38.5(2) no
O210 Ce37 O196 . . . 118.3(3) no
O210 Ce37 O298 . . . 120.8(4) no
O249 Ce37 Ce28 . . . 106.9(2) no
O249 Ce37 Ce34 . . . 70.5(3) no
O249 Ce37 Ce50 . . . 107.7(3) no
O249 Ce37 O118 . . . 77.8(4) no
O249 Ce37 O196 . . . 140.1(3) no
O249 Ce37 O206 . . . 132.6(3) no
O249 Ce37 O210 . . . 69.8(4) no
O249 Ce37 O298 . . . 66.1(4) no
O249 Ce37 O317 . . . 81.6(4) no
O298 Ce37 Ce28 . . . 136.6(2) no
O298 Ce37 Ce34 . . . 136.7(3) no
O298 Ce37 Ce50 . . . 135.7(2) no
O317 Ce37 Ce28 . . . 157.4(3) no
O317 Ce37 Ce34 . . . 108.9(3) no
O317 Ce37 Ce50 . . . 69.7(3) no
O317 Ce37 O196 . . . 138.3(4) no
O317 Ce37 O206 . . . 81.0(4) no
O317 Ce37 O210 . . . 70.3(4) no
O317 Ce37 O298 . . . 66.0(4) no
Ce2 Ce38 Ce5 . . . 59.06(2) no
Ce2 Ce38 Ce9 . . . 66.32(2) no
Ce2 Ce38 Ce31 . . . 94.46(2) no
Ce5 Ce38 Ce9 . . . 94.54(2) no
Ce5 Ce38 Ce31 . . . 65.52(2) no
Ce31 Ce38 Ce9 . . . 59.14(2) no
O45 Ce38 Ce2 . . . 35.4(2) no
O45 Ce38 Ce5 . . . 84.3(2) no
O45 Ce38 Ce9 . . . 33.9(2) no
O45 Ce38 Ce31 . . . 83.5(2) no
O45 Ce38 O76 . . . 73.4(3) no
O45 Ce38 O165 . . . 87.4(3) no
O45 Ce38 O178 . . . 93.8(3) no
O45 Ce38 O202 . . . 73.3(3) no
O45 Ce38 O217 . . . 84.3(4) no
O45 Ce38 O276 . . . 148.3(3) no
O45 Ce38 O308 . . . 145.2(4) no
O76 Ce38 Ce2 . . . 38.2(2) no
O76 Ce38 Ce5 . . . 38.2(2) no
O76 Ce38 Ce9 . . . 101.4(2) no
O76 Ce38 Ce31 . . . 100.8(2) no
O76 Ce38 O165 . . . 75.3(3) no
O76 Ce38 O202 . . . 128.7(3) no
O76 Ce38 O217 . . . 136.9(4) no
O76 Ce38 O276 . . . 76.8(3) no
O76 Ce38 O308 . . . 138.6(4) no
O165 Ce38 Ce2 . . . 77.3(2) no
O165 Ce38 Ce5 . . . 112.4(2) no
O165 Ce38 Ce9 . . . 113.1(3) no
O165 Ce38 Ce31 . . . 170.8(2) no
O165 Ce38 O202 . . . 139.8(3) no
O165 Ce38 O217 . . . 67.1(4) no
O178 Ce38 Ce2 . . . 83.7(2) no
O178 Ce38 Ce5 . . . 33.7(2) no
O178 Ce38 Ce9 . . . 84.6(2) no
O178 Ce38 Ce31 . . . 35.0(2) no
O178 Ce38 O76 . . . 71.8(3) no
O178 Ce38 O165 . . . 145.2(3) no
O178 Ce38 O202 . . . 72.6(3) no
O178 Ce38 O217 . . . 147.6(4) no
O178 Ce38 O276 . . . 87.1(4) no
O178 Ce38 O308 . . . 87.6(3) no
O202 Ce38 Ce2 . . . 102.5(2) no
O202 Ce38 Ce5 . . . 100.7(2) no
O202 Ce38 Ce9 . . . 39.5(2) no
O202 Ce38 Ce31 . . . 37.6(2) no
O202 Ce38 O217 . . . 75.9(4) no
O217 Ce38 Ce2 . . . 110.6(3) no
O217 Ce38 Ce5 . . . 168.6(3) no
O217 Ce38 Ce9 . . . 75.9(3) no
O217 Ce38 Ce31 . . . 113.0(3) no
O276 Ce38 Ce2 . . . 113.7(3) no
O276 Ce38 Ce5 . . . 79.0(3) no
O276 Ce38 Ce9 . . . 171.6(3) no
O276 Ce38 Ce31 . . . 112.9(3) no
O276 Ce38 O165 . . . 74.5(4) no
O276 Ce38 O202 . . . 136.2(3) no
O276 Ce38 O217 . . . 111.1(4) no
O308 Ce38 Ce2 . . . 171.3(3) no
O308 Ce38 Ce5 . . . 113.3(3) no
O308 Ce38 Ce9 . . . 112.2(3) no
O308 Ce38 Ce31 . . . 77.9(2) no
O308 Ce38 O165 . . . 110.6(3) no
O308 Ce38 O202 . . . 74.0(3) no
O308 Ce38 O217 . . . 76.6(4) no
O308 Ce38 O276 . . . 66.5(4) no
Ce58 Ce39 Ce42 . . . 61.33(2) no
Ce58 Ce39 Ce62 . . . 60.69(2) no
Ce58 Ce39 Ce64 . . . 59.42(2) no
Ce62 Ce39 Ce42 . . . 91.00(3) no
Ce62 Ce39 Ce64 . . . 77.76(2) no
Ce64 Ce39 Ce42 . . . 117.12(3) no
O9 Ce39 Ce42 . . . 83.2(3) no
O9 Ce39 Ce58 . . . 83.5(2) no
O9 Ce39 Ce62 . . . 31.8(2) no
O9 Ce39 Ce64 . . . 108.8(2) no
O9 Ce39 O18 . . . 67.1(3) no
O9 Ce39 O74 . . . 138.6(4) no
O9 Ce39 O94 . . . 155.4(4) no
O9 Ce39 O216 . . . 73.5(3) no
O9 Ce39 O222 . . . 98.8(4) no
O9 Ce39 O312 . . . 75.3(4) no
O18 Ce39 Ce42 . . . 41.0(2) no
O18 Ce39 Ce58 . . . 97.5(2) no
O18 Ce39 Ce62 . . . 93.0(2) no
O18 Ce39 Ce64 . . . 156.8(2) no
O18 Ce39 O94 . . . 88.3(3) no
O18 Ce39 O312 . . . 125.4(4) no
O22 Ce39 Ce42 . . . 30.7(2) no
O22 Ce39 Ce58 . . . 34.1(2) no
O22 Ce39 Ce62 . . . 84.4(2) no
O22 Ce39 Ce64 . . . 86.4(2) no
O22 Ce39 O9 . . . 93.2(4) no
O22 Ce39 O18 . . . 71.4(3) no
O22 Ce39 O74 . . . 97.1(4) no
O22 Ce39 O94 . . . 77.3(4) no
O22 Ce39 O216 . . . 71.9(3) no
O22 Ce39 O222 . . . 137.0(4) no
O22 Ce39 O312 . . . 150.2(4) no
O74 Ce39 Ce42 . . . 122.8(3) no
O74 Ce39 Ce58 . . . 83.1(3) no
O74 Ce39 Ce62 . . . 109.8(3) no
O74 Ce39 Ce64 . . . 33.0(3) no
O74 Ce39 O18 . . . 153.7(4) no
O74 Ce39 O94 . . . 65.8(4) no
O74 Ce39 O216 . . . 72.0(4) no
O74 Ce39 O222 . . . 100.4(4) no
O74 Ce39 O312 . . . 76.1(4) no
O94 Ce39 Ce42 . . . 77.2(2) no
O94 Ce39 Ce58 . . . 99.6(2) no
O94 Ce39 Ce62 . . . 160.3(2) no
O94 Ce39 Ce64 . . . 93.5(2) no
O216 Ce39 Ce42 . . . 96.7(3) no
O216 Ce39 Ce58 . . . 37.8(3) no
O216 Ce39 Ce62 . . . 41.8(2) no
O216 Ce39 Ce64 . . . 39.1(2) no
O216 Ce39 O18 . . . 123.3(3) no
O216 Ce39 O94 . . . 123.1(3) no
O216 Ce39 O222 . . . 151.0(4) no
O216 Ce39 O312 . . . 78.5(4) no
O222 Ce39 Ce42 . . . 110.3(3) no
O222 Ce39 Ce58 . . . 171.1(3) no
O222 Ce39 Ce62 . . . 124.6(3) no
O222 Ce39 Ce64 . . . 127.0(3) no
O222 Ce39 O18 . . . 75.7(4) no
O222 Ce39 O94 . . . 74.8(4) no
O222 Ce39 O312 . . . 72.5(5) no
O312 Ce39 Ce42 . . . 158.4(3) no
O312 Ce39 Ce58 . . . 116.3(3) no
O312 Ce39 Ce62 . . . 71.3(3) no
O312 Ce39 Ce64 . . . 72.1(3) no
O312 Ce39 O94 . . . 123.2(4) no
Ce1 Ce40 Ce17 . . . 62.48(2) no
Ce1 Ce40 Ce19 . . . 91.62(2) no
Ce15 Ce40 Ce1 . . . 59.27(2) no
Ce15 Ce40 Ce17 . . . 91.22(2) no
Ce15 Ce40 Ce19 . . . 62.41(2) no
Ce19 Ce40 Ce17 . . . 59.05(2) no
O20 Ce40 Ce1 . . . 77.91(19) no
O20 Ce40 Ce15 . . . 112.7(2) no
O20 Ce40 Ce17 . . . 113.2(2) no
O20 Ce40 Ce19 . . . 169.33(19) no
O20 Ce40 O38 . . . 140.8(3) no
O20 Ce40 O72 . . . 75.6(3) no
O35 Ce40 Ce1 . . . 32.8(2) no
O35 Ce40 Ce15 . . . 83.0(2) no
O35 Ce40 Ce17 . . . 33.4(2) no
O35 Ce40 Ce19 . . . 83.4(2) no
O35 Ce40 O20 . . . 86.6(3) no
O35 Ce40 O38 . . . 71.3(3) no
O35 Ce40 O72 . . . 71.3(3) no
O35 Ce40 O90 . . . 85.1(3) no
O35 Ce40 O93 . . . 94.3(3) no
O35 Ce40 O225 . . . 144.5(3) no
O35 Ce40 O289 . . . 145.5(4) no
O38 Ce40 Ce1 . . . 97.2(2) no
O38 Ce40 Ce15 . . . 96.8(2) no
O38 Ce40 Ce17 . . . 38.0(2) no
O38 Ce40 Ce19 . . . 37.7(2) no
O72 Ce40 Ce1 . . . 38.56(19) no
O72 Ce40 Ce15 . . . 38.2(2) no
O72 Ce40 Ce17 . . . 97.68(19) no
O72 Ce40 Ce19 . . . 97.5(2) no
O72 Ce40 O38 . . . 123.6(3) no
O90 Ce40 Ce1 . . . 111.6(3) no
O90 Ce40 Ce15 . . . 167.1(2) no
O90 Ce40 Ce17 . . . 76.0(2) no
O90 Ce40 Ce19 . . . 111.1(2) no
O90 Ce40 O20 . . . 71.6(3) no
O90 Ce40 O38 . . . 74.5(3) no
O90 Ce40 O72 . . . 140.4(3) no
O93 Ce40 Ce1 . . . 84.2(3) no
O93 Ce40 Ce15 . . . 33.8(3) no
O93 Ce40 Ce17 . . . 83.3(3) no
O93 Ce40 Ce19 . . . 32.7(3) no
O93 Ce40 O20 . . . 145.4(3) no
O93 Ce40 O38 . . . 70.4(3) no
O93 Ce40 O72 . . . 72.0(3) no
O93 Ce40 O90 . . . 143.0(4) no
O93 Ce40 O225 . . . 85.9(4) no
O93 Ce40 O289 . . . 84.7(4) no
O225 Ce40 Ce1 . . . 112.5(2) no
O225 Ce40 Ce15 . . . 77.6(3) no
O225 Ce40 Ce17 . . . 168.5(3) no
O225 Ce40 Ce19 . . . 112.4(3) no
O225 Ce40 O20 . . . 74.2(3) no
O225 Ce40 O38 . . . 139.9(3) no
O225 Ce40 O72 . . . 75.1(3) no
O225 Ce40 O90 . . . 115.3(3) no
O225 Ce40 O289 . . . 69.9(4) no
O289 Ce40 Ce1 . . . 168.5(3) no
O289 Ce40 Ce15 . . . 111.8(3) no
O289 Ce40 Ce17 . . . 112.9(3) no
O289 Ce40 Ce19 . . . 77.3(3) no
O289 Ce40 O20 . . . 113.3(3) no
O289 Ce40 O38 . . . 76.0(3) no
O289 Ce40 O72 . . . 139.0(3) no
O289 Ce40 O90 . . . 75.8(4) no
Ce25 Ce41 Ce16 . . . 90.22(2) no
Ce25 Ce41 Ce57 . . . 60.14(2) no
Ce25 Ce41 Ce60 . . . 60.53(2) no
Ce57 Ce41 Ce16 . . . 136.35(3) no
Ce57 Ce41 Ce60 . . . 78.06(3) no
Ce60 Ce41 Ce16 . . . 58.89(2) no
O15 Ce41 Ce16 . . . 97.8(2) no
O15 Ce41 Ce25 . . . 37.8(2) no
O15 Ce41 Ce57 . . . 39.0(2) no
O15 Ce41 Ce60 . . . 42.5(2) no
O15 Ce41 O56 . . . 126.2(3) no
O15 Ce41 O228 . . . 122.6(3) no
O15 Ce41 O342 . . . 149.0(5) no
O15 Ce41 O343 . . . 79.0(4) no
O40 Ce41 Ce16 . . . 169.0(3) no
O40 Ce41 Ce25 . . . 82.6(2) no
O40 Ce41 Ce57 . . . 32.7(3) no
O40 Ce41 Ce60 . . . 110.2(3) no
O40 Ce41 O15 . . . 71.4(3) no
O40 Ce41 O56 . . . 151.6(3) no
O40 Ce41 O228 . . . 66.2(3) no
O40 Ce41 O342 . . . 95.8(5) no
O40 Ce41 O343 . . . 77.0(4) no
O56 Ce41 Ce16 . . . 38.0(2) no
O56 Ce41 Ce25 . . . 99.5(2) no
O56 Ce41 Ce57 . . . 159.4(2) no
O56 Ce41 Ce60 . . . 95.1(2) no
O56 Ce41 O228 . . . 85.5(3) no
O56 Ce41 O342 . . . 78.0(4) no
O56 Ce41 O343 . . . 124.9(4) no
O63 Ce41 Ce16 . . . 31.2(3) no
O63 Ce41 Ce25 . . . 83.8(3) no
O63 Ce41 Ce57 . . . 108.7(3) no
O63 Ce41 Ce60 . . . 31.7(3) no
O63 Ce41 O15 . . . 74.2(4) no
O63 Ce41 O40 . . . 138.8(4) no
O63 Ce41 O56 . . . 69.2(3) no
O63 Ce41 O228 . . . 154.6(3) no
O63 Ce41 O342 . . . 102.4(5) no
O63 Ce41 O343 . . . 74.9(4) no
O162 Ce41 Ce16 . . . 82.7(3) no
O162 Ce41 Ce25 . . . 34.0(3) no
O162 Ce41 Ce57 . . . 86.7(2) no
O162 Ce41 Ce60 . . . 84.5(3) no
O162 Ce41 O15 . . . 71.7(3) no
O162 Ce41 O40 . . . 95.8(3) no
O162 Ce41 O56 . . . 73.2(3) no
O162 Ce41 O63 . . . 94.3(4) no
O162 Ce41 O228 . . . 75.9(4) no
O162 Ce41 O342 . . . 138.8(5) no
O162 Ce41 O343 . . . 150.6(4) no
O228 Ce41 Ce16 . . . 123.5(2) no
O228 Ce41 Ce25 . . . 98.9(2) no
O228 Ce41 Ce57 . . . 94.2(2) no
O228 Ce41 Ce60 . . . 159.3(2) no
O342 Ce41 Ce16 . . . 92.4(4) no
O342 Ce41 Ce25 . . . 171.7(4) no
O342 Ce41 Ce57 . . . 121.7(4) no
O342 Ce41 Ce60 . . . 127.3(4) no
O342 Ce41 O228 . . . 73.1(5) no
O342 Ce41 O343 . . . 70.5(5) no
O343 Ce41 Ce16 . . . 99.0(3) no
O343 Ce41 Ce25 . . . 116.8(3) no
O343 Ce41 Ce57 . . . 71.8(3) no
O343 Ce41 Ce60 . . . 71.9(3) no
O343 Ce41 O228 . . . 124.2(4) no
Ce24 Ce42 Ce39 . . . 60.78(2) no
Ce24 Ce42 Ce58 . . . 87.42(2) no
Ce58 Ce42 Ce39 . . . 56.82(2) no
O18 Ce42 Ce24 . . . 37.5(2) no
O18 Ce42 Ce39 . . . 39.1(2) no
O18 Ce42 Ce58 . . . 91.6(2) no
O22 Ce42 Ce24 . . . 81.0(2) no
O22 Ce42 Ce39 . . . 29.0(2) no
O22 Ce42 Ce58 . . . 31.2(2) no
O22 Ce42 O18 . . . 67.9(3) no
O22 Ce42 O60 . . . 89.9(3) no
O22 Ce42 O69 . . . 69.2(3) no
O22 Ce42 O77 . . . 77.3(3) no
O22 Ce42 O154 . . . 139.3(3) no
O22 Ce42 O278 . . . 80.4(4) no
O22 Ce42 O320 . . . 135.7(4) no
O22 Ce42 O355 . . . 136.1(4) no
O60 Ce42 Ce24 . . . 29.7(2) no
O60 Ce42 Ce39 . . . 81.0(2) no
O60 Ce42 Ce58 . . . 80.5(2) no
O60 Ce42 O18 . . . 67.0(3) no
O60 Ce42 O69 . . . 68.0(3) no
O60 Ce42 O77 . . . 133.6(4) no
O60 Ce42 O154 . . . 77.5(3) no
O60 Ce42 O278 . . . 138.1(4) no
O60 Ce42 O320 . . . 79.1(4) no
O60 Ce42 O355 . . . 133.9(4) no
O69 Ce42 Ce24 . . . 91.3(2) no
O69 Ce42 Ce39 . . . 91.4(2) no
O69 Ce42 Ce58 . . . 38.1(2) no
O69 Ce42 O18 . . . 116.1(3) no
O69 Ce42 O355 . . . 122.4(4) no
O77 Ce42 Ce24 . . . 103.9(3) no
O77 Ce42 Ce39 . . . 66.3(3) no
O77 Ce42 Ce58 . . . 105.3(2) no
O77 Ce42 O18 . . . 66.8(3) no
O77 Ce42 O69 . . . 140.4(3) no
O77 Ce42 O355 . . . 70.4(4) no
O154 Ce42 Ce24 . . . 69.0(2) no
O154 Ce42 Ce39 . . . 110.3(3) no
O154 Ce42 Ce58 . . . 156.2(2) no
O154 Ce42 O18 . . . 71.6(3) no
O154 Ce42 O69 . . . 135.6(3) no
O154 Ce42 O77 . . . 83.9(3) no
O154 Ce42 O320 . . . 80.1(4) no
O154 Ce42 O355 . . . 65.7(4) no
O278 Ce42 Ce24 . . . 157.6(3) no
O278 Ce42 Ce39 . . . 105.5(3) no
O278 Ce42 Ce58 . . . 70.2(3) no
O278 Ce42 O18 . . . 140.4(4) no
O278 Ce42 O69 . . . 70.4(4) no
O278 Ce42 O77 . . . 84.0(4) no
O278 Ce42 O154 . . . 133.3(4) no
O278 Ce42 O320 . . . 80.0(4) no
O278 Ce42 O355 . . . 67.7(4) no
O320 Ce42 Ce24 . . . 105.3(3) no
O320 Ce42 Ce39 . . . 154.8(3) no
O320 Ce42 Ce58 . . . 104.5(3) no
O320 Ce42 O18 . . . 139.5(3) no
O320 Ce42 O69 . . . 66.9(4) no
O320 Ce42 O77 . . . 138.8(4) no
O320 Ce42 O355 . . . 68.4(4) no
O355 Ce42 Ce24 . . . 134.7(3) no
O355 Ce42 Ce39 . . . 136.6(4) no
O355 Ce42 Ce58 . . . 137.9(3) no
O355 Ce42 O18 . . . 121.4(4) no
Ce35 Ce43 Ce25 . . . 59.68(2) no
Ce41 Ce43 Ce25 . . . 56.06(2) no
Ce41 Ce43 Ce35 . . . 86.18(2) no
O56 Ce43 Ce25 . . . 90.7(2) no
O56 Ce43 Ce35 . . . 90.51(19) no
O56 Ce43 Ce41 . . . 38.3(2) no
O121 Ce43 Ce25 . . . 81.3(2) no
O121 Ce43 Ce35 . . . 30.0(2) no
O121 Ce43 Ce41 . . . 81.2(2) no
O121 Ce43 O56 . . . 68.3(3) no
O121 Ce43 O152 . . . 77.7(4) no
O121 Ce43 O162 . . . 90.5(4) no
O121 Ce43 O203 . . . 67.8(4) no
O121 Ce43 O332 . . . 135.0(4) no
O121 Ce43 O337 . . . 77.9(4) no
O121 Ce43 O338 . . . 135.9(4) no
O121 Ce43 O398 . . . 133.4(4) no
O152 Ce43 Ce25 . . . 105.8(3) no
O152 Ce43 Ce35 . . . 68.2(3) no
O152 Ce43 Ce41 . . . 154.2(3) no
O152 Ce43 O56 . . . 139.3(4) no
O152 Ce43 O203 . . . 68.9(4) no
O152 Ce43 O332 . . . 79.2(4) no
O152 Ce43 O337 . . . 83.8(5) no
O152 Ce43 O338 . . . 137.8(4) no
O152 Ce43 O398 . . . 68.6(4) no
O162 Ce43 Ce25 . . . 30.4(2) no
O162 Ce43 Ce35 . . . 80.6(2) no
O162 Ce43 Ce41 . . . 29.2(3) no
O162 Ce43 O56 . . . 67.3(3) no
O162 Ce43 O152 . . . 136.2(4) no
O162 Ce43 O203 . . . 67.6(3) no
O162 Ce43 O332 . . . 80.3(4) no
O162 Ce43 O337 . . . 135.2(4) no
O162 Ce43 O338 . . . 77.7(3) no
O162 Ce43 O398 . . . 136.1(4) no
O203 Ce43 Ce25 . . . 37.5(2) no
O203 Ce43 Ce35 . . . 37.9(3) no
O203 Ce43 Ce41 . . . 89.6(2) no
O203 Ce43 O56 . . . 114.9(3) no
O332 Ce43 Ce25 . . . 68.7(3) no
O332 Ce43 Ce35 . . . 105.1(3) no
O332 Ce43 Ce41 . . . 106.5(3) no
O332 Ce43 O56 . . . 141.2(3) no
O332 Ce43 O203 . . . 68.0(4) no
O332 Ce43 O398 . . . 69.1(4) no
O337 Ce43 Ce25 . . . 154.6(3) no
O337 Ce43 Ce35 . . . 104.8(3) no
O337 Ce43 Ce41 . . . 106.0(4) no
O337 Ce43 O56 . . . 68.2(4) no
O337 Ce43 O203 . . . 139.5(4) no
O337 Ce43 O332 . . . 136.7(4) no
O337 Ce43 O338 . . . 81.3(4) no
O337 Ce43 O398 . . . 67.6(4) no
O338 Ce43 Ce25 . . . 104.5(3) no
O338 Ce43 Ce35 . . . 154.0(3) no
O338 Ce43 Ce41 . . . 67.9(3) no
O338 Ce43 O56 . . . 68.0(4) no
O338 Ce43 O203 . . . 138.8(4) no
O338 Ce43 O332 . . . 85.2(4) no
O338 Ce43 O398 . . . 69.2(4) no
O398 Ce43 Ce25 . . . 137.7(3) no
O398 Ce43 Ce35 . . . 136.6(3) no
O398 Ce43 Ce41 . . . 137.2(3) no
O398 Ce43 O56 . . . 121.5(4) no
O398 Ce43 O203 . . . 123.6(4) no
Ce16 Ce44 Ce17 . . . 65.92(2) no
Ce16 Ce44 Ce35 . . . 58.92(2) no
Ce17 Ce44 Ce35 . . . 94.69(3) no
Ce19 Ce44 Ce16 . . . 94.43(2) no
Ce19 Ce44 Ce17 . . . 59.67(2) no
Ce19 Ce44 Ce35 . . . 65.68(2) no
O38 Ce44 Ce16 . . . 101.1(2) no
O38 Ce44 Ce17 . . . 38.4(2) no
O38 Ce44 Ce19 . . . 38.2(2) no
O38 Ce44 Ce35 . . . 100.8(2) no
O38 Ce44 O84 . . . 127.8(3) no
O65 Ce44 Ce16 . . . 83.6(2) no
O65 Ce44 Ce17 . . . 84.6(3) no
O65 Ce44 Ce19 . . . 34.7(2) no
O65 Ce44 Ce35 . . . 34.1(2) no
O65 Ce44 O38 . . . 72.8(3) no
O65 Ce44 O82 . . . 93.6(4) no
O65 Ce44 O84 . . . 71.9(3) no
O65 Ce44 O176 . . . 146.9(3) no
O65 Ce44 O179 . . . 145.4(3) no
O65 Ce44 O221 . . . 85.0(4) no
O65 Ce44 O227 . . . 88.0(4) no
O82 Ce44 Ce16 . . . 34.8(3) no
O82 Ce44 Ce17 . . . 34.1(3) no
O82 Ce44 Ce19 . . . 84.0(3) no
O82 Ce44 Ce35 . . . 84.0(3) no
O82 Ce44 O38 . . . 72.4(3) no
O82 Ce44 O84 . . . 72.8(3) no
O82 Ce44 O176 . . . 86.6(4) no
O82 Ce44 O179 . . . 88.5(3) no
O82 Ce44 O221 . . . 147.9(4) no
O82 Ce44 O227 . . . 145.2(4) no
O84 Ce44 Ce16 . . . 38.1(2) no
O84 Ce44 Ce17 . . . 101.0(2) no
O84 Ce44 Ce19 . . . 100.7(2) no
O84 Ce44 Ce35 . . . 37.9(2) no
O176 Ce44 Ce16 . . . 112.8(3) no
O176 Ce44 Ce17 . . . 77.2(3) no
O176 Ce44 Ce19 . . . 112.9(2) no
O176 Ce44 Ce35 . . . 170.7(3) no
O176 Ce44 O38 . . . 75.9(3) no
O176 Ce44 O84 . . . 138.4(3) no
O176 Ce44 O179 . . . 67.7(3) no
O176 Ce44 O221 . . . 111.5(4) no
O176 Ce44 O227 . . . 73.8(4) no
O179 Ce44 Ce16 . . . 78.61(19) no
O179 Ce44 Ce17 . . . 113.9(3) no
O179 Ce44 Ce19 . . . 172.4(2) no
O179 Ce44 Ce35 . . . 112.4(2) no
O179 Ce44 O38 . . . 139.7(3) no
O179 Ce44 O84 . . . 75.8(3) no
O179 Ce44 O221 . . . 75.4(4) no
O221 Ce44 Ce16 . . . 113.5(3) no
O221 Ce44 Ce17 . . . 169.6(3) no
O221 Ce44 Ce19 . . . 110.6(3) no
O221 Ce44 Ce35 . . . 77.0(3) no
O221 Ce44 O38 . . . 136.3(4) no
O221 Ce44 O84 . . . 76.3(4) no
O227 Ce44 Ce16 . . . 171.5(3) no
O227 Ce44 Ce17 . . . 112.0(3) no
O227 Ce44 Ce19 . . . 77.8(2) no
O227 Ce44 Ce35 . . . 114.0(3) no
O227 Ce44 O38 . . . 75.0(3) no
O227 Ce44 O84 . . . 139.5(4) no
O227 Ce44 O179 . . . 109.3(3) no
O227 Ce44 O221 . . . 66.9(4) no
Ce24 Ce45 Ce32 . . . 60.11(2) no
Ce24 Ce45 Ce58 . . . 90.41(3) no
Ce24 Ce45 Ce62 . . . 61.04(2) no
Ce32 Ce45 Ce58 . . . 136.92(3) no
Ce32 Ce45 Ce62 . . . 78.54(3) no
Ce62 Ce45 Ce58 . . . 59.08(2) no
O48 Ce45 Ce24 . . . 38.3(2) no
O48 Ce45 Ce32 . . . 40.5(2) no
O48 Ce45 Ce58 . . . 96.8(2) no
O48 Ce45 Ce62 . . . 41.2(2) no
O48 Ce45 O69 . . . 123.9(3) no
O48 Ce45 O109 . . . 76.9(3) no
O48 Ce45 O226 . . . 125.0(3) no
O48 Ce45 O352 . . . 147.2(4) no
O60 Ce45 Ce24 . . . 33.4(2) no
O60 Ce45 Ce32 . . . 86.8(2) no
O60 Ce45 Ce58 . . . 81.6(2) no
O60 Ce45 Ce62 . . . 83.7(2) no
O60 Ce45 O48 . . . 71.6(3) no
O60 Ce45 O69 . . . 70.9(3) no
O60 Ce45 O108 . . . 96.6(3) no
O60 Ce45 O109 . . . 148.4(4) no
O60 Ce45 O184 . . . 93.7(3) no
O60 Ce45 O226 . . . 76.3(3) no
O60 Ce45 O352 . . . 141.2(4) no
O69 Ce45 Ce24 . . . 97.6(2) no
O69 Ce45 Ce32 . . . 157.3(2) no
O69 Ce45 Ce58 . . . 37.9(2) no
O69 Ce45 Ce62 . . . 94.6(3) no
O69 Ce45 O109 . . . 129.2(3) no
O69 Ce45 O226 . . . 83.4(3) no
O108 Ce45 Ce24 . . . 83.4(2) no
O108 Ce45 Ce32 . . . 34.0(3) no
O108 Ce45 Ce58 . . . 170.9(3) no
O108 Ce45 Ce62 . . . 111.9(3) no
O108 Ce45 O48 . . . 74.2(3) no
O108 Ce45 O69 . . . 149.6(4) no
O108 Ce45 O109 . . . 75.5(4) no
O108 Ce45 O226 . . . 66.6(3) no
O108 Ce45 O352 . . . 97.5(5) no
O109 Ce45 Ce24 . . . 115.2(3) no
O109 Ce45 Ce32 . . . 69.5(3) no
O109 Ce45 Ce58 . . . 101.4(3) no
O109 Ce45 Ce62 . . . 71.8(3) no
O109 Ce45 O226 . . . 124.9(4) no
O184 Ce45 Ce24 . . . 84.6(3) no
O184 Ce45 Ce32 . . . 109.1(3) no
O184 Ce45 Ce58 . . . 31.8(3) no
O184 Ce45 Ce62 . . . 31.7(3) no
O184 Ce45 O48 . . . 72.9(4) no
O184 Ce45 O69 . . . 69.7(4) no
O184 Ce45 O108 . . . 140.2(4) no
O184 Ce45 O109 . . . 75.8(4) no
O184 Ce45 O226 . . . 153.0(4) no
O184 Ce45 O352 . . . 98.1(5) no
O226 Ce45 Ce24 . . . 98.8(2) no
O226 Ce45 Ce32 . . . 95.5(2) no
O226 Ce45 Ce58 . . . 121.2(2) no
O226 Ce45 Ce62 . . . 159.4(2) no
O352 Ce45 Ce24 . . . 174.4(3) no
O352 Ce45 Ce32 . . . 123.0(4) no
O352 Ce45 Ce58 . . . 89.3(4) no
O352 Ce45 Ce62 . . . 123.2(4) no
O352 Ce45 O69 . . . 78.9(4) no
O352 Ce45 O109 . . . 70.3(4) no
O352 Ce45 O226 . . . 76.6(4) no
Ce65 Ce46 Ce48 . . . 61.97(3) no
Ce65 Ce46 Ce68 . . . 59.67(3) no
Ce65 Ce46 Ce69 . . . 60.01(3) no
Ce68 Ce46 Ce48 . . . 118.19(3) no
Ce68 Ce46 Ce69 . . . 76.99(3) no
Ce69 Ce46 Ce48 . . . 90.98(3) no
O41 Ce46 Ce48 . . . 30.9(2) no
O41 Ce46 Ce65 . . . 34.0(2) no
O41 Ce46 Ce68 . . . 87.3(2) no
O41 Ce46 Ce69 . . . 83.1(2) no
O41 Ce46 O61 . . . 71.0(3) no
O41 Ce46 O135 . . . 153.2(4) no
O41 Ce46 O164 . . . 92.1(3) no
O41 Ce46 O189 . . . 78.3(3) no
O41 Ce46 O207 . . . 98.3(4) no
O41 Ce46 O233 . . . 72.1(4) no
O41 Ce46 O401 . . . 137.4(4) no
O61 Ce46 Ce48 . . . 40.4(2) no
O61 Ce46 Ce65 . . . 98.1(3) no
O61 Ce46 Ce68 . . . 157.6(3) no
O61 Ce46 Ce69 . . . 94.5(3) no
O61 Ce46 O135 . . . 123.5(3) no
O61 Ce46 O189 . . . 85.9(3) no
O61 Ce46 O401 . . . 76.3(4) no
O135 Ce46 Ce48 . . . 158.1(2) no
O135 Ce46 Ce65 . . . 119.7(3) no
O135 Ce46 Ce68 . . . 74.5(2) no
O135 Ce46 Ce69 . . . 73.9(3) no
O135 Ce46 O189 . . . 122.1(3) no
O135 Ce46 O401 . . . 69.1(5) no
O164 Ce46 Ce48 . . . 83.8(3) no
O164 Ce46 Ce65 . . . 82.6(3) no
O164 Ce46 Ce68 . . . 106.8(3) no
O164 Ce46 Ce69 . . . 30.8(3) no
O164 Ce46 O61 . . . 69.7(4) no
O164 Ce46 O135 . . . 75.1(3) no
O164 Ce46 O189 . . . 155.6(3) no
O164 Ce46 O207 . . . 136.8(4) no
O164 Ce46 O233 . . . 71.9(4) no
O164 Ce46 O401 . . . 101.5(5) no
O189 Ce46 Ce48 . . . 76.45(19) no
O189 Ce46 Ce65 . . . 100.2(2) no
O189 Ce46 Ce68 . . . 95.2(2) no
O189 Ce46 Ce69 . . . 160.1(2) no
O207 Ce46 Ce48 . . . 123.7(3) no
O207 Ce46 Ce65 . . . 83.3(3) no
O207 Ce46 Ce68 . . . 33.0(3) no
O207 Ce46 Ce69 . . . 109.2(3) no
O207 Ce46 O61 . . . 152.9(4) no
O207 Ce46 O135 . . . 77.1(4) no
O207 Ce46 O189 . . . 67.4(4) no
O207 Ce46 O233 . . . 71.8(3) no
O207 Ce46 O401 . . . 98.6(4) no
O233 Ce46 Ce48 . . . 97.7(3) no
O233 Ce46 Ce65 . . . 38.2(3) no
O233 Ce46 Ce68 . . . 38.9(2) no
O233 Ce46 Ce69 . . . 41.1(2) no
O233 Ce46 O61 . . . 124.6(3) no
O233 Ce46 O135 . . . 81.5(4) no
O233 Ce46 O189 . . . 124.5(3) no
O233 Ce46 O401 . . . 150.5(5) no
O401 Ce46 Ce48 . . . 110.4(4) no
O401 Ce46 Ce65 . . . 171.2(4) no
O401 Ce46 Ce68 . . . 125.4(3) no
O401 Ce46 Ce69 . . . 126.6(4) no
O401 Ce46 O189 . . . 72.8(4) no
Ce49 Ce47 Ce23 . . . 61.55(2) no
Ce49 Ce47 Ce63 . . . 60.07(2) no
Ce49 Ce47 Ce68 . . . 60.33(3) no
Ce63 Ce47 Ce23 . . . 90.73(2) no
Ce68 Ce47 Ce23 . . . 118.12(3) no
Ce68 Ce47 Ce63 . . . 78.06(3) no
O86 Ce47 Ce23 . . . 41.4(2) no
O86 Ce47 Ce49 . . . 98.5(2) no
O86 Ce47 Ce63 . . . 94.17(18) no
O86 Ce47 Ce68 . . . 158.7(2) no
O86 Ce47 O189 . . . 85.7(3) no
O86 Ce47 O296 . . . 128.4(4) no
O92 Ce47 Ce23 . . . 83.6(2) no
O92 Ce47 Ce49 . . . 83.7(3) no
O92 Ce47 Ce63 . . . 32.1(3) no
O92 Ce47 Ce68 . . . 109.0(2) no
O92 Ce47 O86 . . . 68.3(3) no
O92 Ce47 O189 . . . 153.7(3) no
O92 Ce47 O205 . . . 72.8(3) no
O92 Ce47 O237 . . . 100.0(4) no
O92 Ce47 O296 . . . 75.8(3) no
O151 Ce47 Ce23 . . . 30.4(3) no
O151 Ce47 Ce49 . . . 34.5(2) no
O151 Ce47 Ce63 . . . 83.9(2) no
O151 Ce47 Ce68 . . . 87.7(3) no
O151 Ce47 O86 . . . 71.6(3) no
O151 Ce47 O92 . . . 93.4(3) no
O151 Ce47 O189 . . . 74.3(3) no
O151 Ce47 O205 . . . 72.3(4) no
O151 Ce47 O237 . . . 136.6(4) no
O151 Ce47 O296 . . . 147.6(4) no
O189 Ce47 Ce23 . . . 74.0(2) no
O189 Ce47 Ce49 . . . 97.2(2) no
O189 Ce47 Ce63 . . . 157.1(2) no
O189 Ce47 Ce68 . . . 93.9(2) no
O205 Ce47 Ce23 . . . 96.8(3) no
O205 Ce47 Ce49 . . . 37.9(3) no
O205 Ce47 Ce63 . . . 40.8(2) no
O205 Ce47 Ce68 . . . 40.5(2) no
O205 Ce47 O86 . . . 124.1(3) no
O205 Ce47 O189 . . . 122.7(3) no
O205 Ce47 O237 . . . 151.1(5) no
O205 Ce47 O296 . . . 75.4(4) no
O207 Ce47 Ce23 . . . 121.9(3) no
O207 Ce47 Ce49 . . . 82.6(3) no
O207 Ce47 Ce63 . . . 110.0(3) no
O207 Ce47 Ce68 . . . 32.5(3) no
O207 Ce47 O86 . . . 152.1(3) no
O207 Ce47 O92 . . . 139.1(4) no
O207 Ce47 O151 . . . 96.6(4) no
O207 Ce47 O189 . . . 66.6(3) no
O207 Ce47 O205 . . . 72.7(4) no
O207 Ce47 O237 . . . 99.5(4) no
O207 Ce47 O296 . . . 74.7(4) no
O237 Ce47 Ce23 . . . 110.4(4) no
O237 Ce47 Ce49 . . . 170.9(4) no
O237 Ce47 Ce63 . . . 126.4(3) no
O237 Ce47 Ce68 . . . 125.1(4) no
O237 Ce47 O86 . . . 75.5(4) no
O237 Ce47 O189 . . . 75.8(4) no
O237 Ce47 O296 . . . 75.8(5) no
O296 Ce47 Ce23 . . . 159.3(3) no
O296 Ce47 Ce49 . . . 113.2(3) no
O296 Ce47 Ce63 . . . 70.7(3) no
O296 Ce47 Ce68 . . . 68.1(3) no
O296 Ce47 O189 . . . 126.4(3) no
Ce46 Ce48 Ce18 . . . 60.18(2) no
Ce46 Ce48 Ce56 . . . 87.84(3) no
Ce56 Ce48 Ce18 . . . 57.10(2) no
O13 Ce48 Ce18 . . . 30.0(2) no
O13 Ce48 Ce46 . . . 80.7(3) no
O13 Ce48 Ce56 . . . 30.0(2) no
O13 Ce48 O41 . . . 89.0(3) no
O13 Ce48 O49 . . . 68.3(3) no
O13 Ce48 O61 . . . 68.2(3) no
O13 Ce48 O115 . . 2_666 134.3(4) no
O13 Ce48 O248 . . . 80.0(4) no
O13 Ce48 O316 . . . 79.6(4) no
O13 Ce48 O348 . . . 139.4(4) no
O13 Ce48 O368 . . . 137.1(4) no
O41 Ce48 Ce18 . . . 80.8(2) no
O41 Ce48 Ce46 . . . 30.6(2) no
O41 Ce48 Ce56 . . . 80.4(2) no
O41 Ce48 O49 . . . 67.5(3) no
O41 Ce48 O61 . . . 68.9(3) no
O41 Ce48 O115 . . 2_666 79.2(3) no
O41 Ce48 O248 . . . 137.7(4) no
O41 Ce48 O316 . . . 138.7(4) no
O41 Ce48 O348 . . . 78.2(4) no
O41 Ce48 O368 . . . 133.8(3) no
O49 Ce48 Ce18 . . . 91.8(2) no
O49 Ce48 Ce46 . . . 91.7(2) no
O49 Ce48 Ce56 . . . 38.50(19) no
O49 Ce48 O368 . . . 123.2(4) no
O61 Ce48 Ce18 . . . 38.4(2) no
O61 Ce48 Ce46 . . . 38.5(2) no
O61 Ce48 Ce56 . . . 91.9(2) no
O61 Ce48 O49 . . . 117.2(4) no
O61 Ce48 O368 . . . 119.5(4) no
O115 Ce48 Ce18 2_666 . . 154.8(3) no
O115 Ce48 Ce46 2_666 . . 106.1(2) no
O115 Ce48 Ce56 2_666 . . 104.2(3) no
O115 Ce48 O49 2_666 . . 66.4(4) no
O115 Ce48 O61 2_666 . . 141.2(3) no
O115 Ce48 O368 2_666 . . 68.9(4) no
O248 Ce48 Ce18 . . . 105.5(3) no
O248 Ce48 Ce46 . . . 157.6(3) no
O248 Ce48 Ce56 . . . 69.8(3) no
O248 Ce48 O49 . . . 70.5(4) no
O248 Ce48 O61 . . . 138.9(3) no
O248 Ce48 O115 . . 2_666 79.8(4) no
O248 Ce48 O368 . . . 68.8(4) no
O316 Ce48 Ce18 . . . 69.6(2) no
O316 Ce48 Ce46 . . . 108.1(3) no
O316 Ce48 Ce56 . . . 105.1(3) no
O316 Ce48 O49 . . . 138.9(4) no
O316 Ce48 O61 . . . 70.0(4) no
O316 Ce48 O115 . . 2_666 135.2(4) no
O316 Ce48 O248 . . . 79.5(4) no
O316 Ce48 O348 . . . 85.0(4) no
O316 Ce48 O368 . . . 66.7(3) no
O348 Ce48 Ce18 . . . 109.4(3) no
O348 Ce48 Ce46 . . . 68.7(3) no
O348 Ce48 Ce56 . . . 156.5(3) no
O348 Ce48 O49 . . . 136.1(3) no
O348 Ce48 O61 . . . 71.3(4) no
O348 Ce48 O115 . . 2_666 81.3(4) no
O348 Ce48 O248 . . . 133.6(4) no
O348 Ce48 O368 . . . 64.9(4) no
O368 Ce48 Ce18 . . . 136.2(2) no
O368 Ce48 Ce46 . . . 133.6(3) no
O368 Ce48 Ce56 . . . 138.5(3) no
Ce47 Ce49 Ce23 . . . 61.36(2) no
Ce47 Ce49 Ce63 . . . 60.41(2) no
Ce47 Ce49 Ce68 . . . 60.10(3) no
Ce63 Ce49 Ce23 . . . 90.81(3) no
Ce63 Ce49 Ce68 . . . 78.11(3) no
Ce68 Ce49 Ce23 . . . 117.73(3) no
O89 Ce49 Ce23 . . . 84.2(2) no
O89 Ce49 Ce47 . . . 84.1(3) no
O89 Ce49 Ce63 . . . 31.8(3) no
O89 Ce49 Ce68 . . . 108.7(3) no
O89 Ce49 O100 . . . 69.9(3) no
O89 Ce49 O205 . . . 72.7(3) no
O89 Ce49 O251 . . 2_666 153.2(3) no
O89 Ce49 O315 . . . 72.6(4) no
O89 Ce49 O384 . . . 100.4(4) no
O100 Ce49 Ce23 . . . 42.2(2) no
O100 Ce49 Ce47 . . . 99.7(2) no
O100 Ce49 Ce63 . . . 95.6(2) no
O100 Ce49 Ce68 . . . 159.5(2) no
O100 Ce49 O251 . . 2_666 83.3(3) no
O100 Ce49 O315 . . . 122.5(4) no
O100 Ce49 O384 . . . 77.2(4) no
O151 Ce49 Ce23 . . . 30.3(3) no
O151 Ce49 Ce47 . . . 34.4(3) no
O151 Ce49 Ce63 . . . 84.2(2) no
O151 Ce49 Ce68 . . . 87.4(3) no
O151 Ce49 O89 . . . 94.0(3) no
O151 Ce49 O100 . . . 72.4(3) no
O151 Ce49 O205 . . . 72.6(4) no
O151 Ce49 O251 . . 2_666 76.5(3) no
O151 Ce49 O315 . . . 152.0(5) no
O151 Ce49 O384 . . . 139.4(5) no
O205 Ce49 Ce23 . . . 96.9(3) no
O205 Ce49 Ce47 . . . 38.3(2) no
O205 Ce49 Ce63 . . . 40.9(2) no
O205 Ce49 Ce68 . . . 40.2(2) no
O205 Ce49 O100 . . . 125.9(3) no
O205 Ce49 O251 . . 2_666 125.7(3) no
O205 Ce49 O315 . . . 79.8(5) no
O205 Ce49 O384 . . . 148.0(4) no
O236 Ce49 Ce23 . . . 123.8(3) no
O236 Ce49 Ce47 . . . 84.1(3) no
O236 Ce49 Ce63 . . . 109.9(3) no
O236 Ce49 Ce68 . . . 32.9(3) no
O236 Ce49 O89 . . . 137.8(4) no
O236 Ce49 O100 . . . 152.1(4) no
O236 Ce49 O151 . . . 98.6(4) no
O236 Ce49 O205 . . . 73.0(4) no
O236 Ce49 O251 . . 2_666 68.9(4) no
O236 Ce49 O315 . . . 77.8(4) no
O236 Ce49 O384 . . . 95.8(5) no
O251 Ce49 Ce23 2_666 . . 74.9(2) no
O251 Ce49 Ce47 2_666 . . 100.0(2) no
O251 Ce49 Ce63 2_666 . . 160.0(2) no
O251 Ce49 Ce68 2_666 . . 95.9(2) no
O315 Ce49 Ce23 . . . 156.6(3) no
O315 Ce49 Ce47 . . . 118.1(4) no
O315 Ce49 Ce63 . . . 71.4(3) no
O315 Ce49 Ce68 . . . 74.4(4) no
O315 Ce49 O251 . . 2_666 125.8(4) no
O384 Ce49 Ce23 . . . 113.7(4) no
O384 Ce49 Ce47 . . . 173.2(3) no
O384 Ce49 Ce63 . . . 125.6(3) no
O384 Ce49 Ce68 . . . 122.4(4) no
O384 Ce49 O251 . . 2_666 73.7(4) no
O384 Ce49 O315 . . . 68.4(5) no
Ce13 Ce50 Ce32 . . . 60.00(2) no
Ce13 Ce50 Ce37 . . . 61.82(2) no
Ce13 Ce50 Ce55 . . . 60.35(2) no
Ce32 Ce50 Ce37 . . . 118.14(3) no
Ce32 Ce50 Ce55 . . . 78.23(3) no
Ce55 Ce50 Ce37 . . . 90.70(2) no
O27 Ce50 Ce13 . . . 83.2(2) no
O27 Ce50 Ce32 . . . 108.1(3) no
O27 Ce50 Ce37 . . . 83.7(2) no
O27 Ce50 Ce55 . . . 31.0(3) no
O27 Ce50 O101 . . . 72.5(4) no
O27 Ce50 O210 . . . 70.5(3) no
O27 Ce50 O226 . . . 154.3(3) no
O27 Ce50 O244 . . . 74.2(4) no
O27 Ce50 O382 . . . 103.1(5) no
O101 Ce50 Ce13 . . . 38.4(2) no
O101 Ce50 Ce32 . . . 39.6(2) no
O101 Ce50 Ce37 . . . 97.6(2) no
O101 Ce50 Ce55 . . . 41.5(2) no
O101 Ce50 O210 . . . 125.4(3) no
O101 Ce50 O226 . . . 124.7(3) no
O101 Ce50 O244 . . . 77.9(3) no
O101 Ce50 O382 . . . 148.4(4) no
O108 Ce50 Ce13 . . . 83.6(2) no
O108 Ce50 Ce32 . . . 33.5(2) no
O108 Ce50 Ce37 . . . 122.7(3) no
O108 Ce50 Ce55 . . . 111.1(2) no
O108 Ce50 O27 . . . 138.8(4) no
O108 Ce50 O101 . . . 73.0(3) no
O108 Ce50 O116 . . . 97.4(4) no
O108 Ce50 O210 . . . 150.1(4) no
O108 Ce50 O226 . . . 66.6(3) no
O108 Ce50 O244 . . . 77.2(4) no
O108 Ce50 O382 . . . 94.7(5) no
O116 Ce50 Ce13 . . . 33.8(2) no
O116 Ce50 Ce32 . . . 87.1(3) no
O116 Ce50 Ce37 . . . 31.1(3) no
O116 Ce50 Ce55 . . . 83.3(2) no
O116 Ce50 O27 . . . 92.7(3) no
O116 Ce50 O101 . . . 72.1(3) no
O116 Ce50 O210 . . . 71.1(4) no
O116 Ce50 O226 . . . 77.3(3) no
O116 Ce50 O244 . . . 149.7(4) no
O116 Ce50 O382 . . . 139.3(4) no
O210 Ce50 Ce13 . . . 98.3(2) no
O210 Ce50 Ce32 . . . 157.8(2) no
O210 Ce50 Ce37 . . . 40.1(2) no
O210 Ce50 Ce55 . . . 95.3(2) no
O210 Ce50 O226 . . . 83.8(3) no
O210 Ce50 O244 . . . 126.4(4) no
O210 Ce50 O382 . . . 79.2(4) no
O226 Ce50 Ce13 . . . 99.7(2) no
O226 Ce50 Ce32 . . . 95.0(2) no
O226 Ce50 Ce37 . . . 75.6(2) no
O226 Ce50 Ce55 . . . 159.8(2) no
O244 Ce50 Ce13 . . . 116.2(3) no
O244 Ce50 Ce32 . . . 72.0(3) no
O244 Ce50 Ce37 . . . 157.8(3) no
O244 Ce50 Ce55 . . . 71.4(3) no
O244 Ce50 O226 . . . 125.0(4) no
O382 Ce50 Ce13 . . . 171.8(4) no
O382 Ce50 Ce32 . . . 121.6(4) no
O382 Ce50 Ce37 . . . 113.2(4) no
O382 Ce50 Ce55 . . . 127.4(4) no
O382 Ce50 O226 . . . 72.3(5) no
O382 Ce50 O244 . . . 71.0(5) no
Ce12 Ce51 Ce14 . . . 59.36(2) no
Ce12 Ce51 Ce18 . . . 65.72(2) no
Ce18 Ce51 Ce14 . . . 94.71(3) no
Ce56 Ce51 Ce12 . . . 95.03(3) no
Ce56 Ce51 Ce14 . . . 65.87(2) no
Ce56 Ce51 Ce18 . . . 59.95(2) no
O58 Ce51 Ce12 . . . 112.9(2) no
O58 Ce51 Ce14 . . . 78.5(3) no
O58 Ce51 Ce18 . . . 172.2(3) no
O58 Ce51 Ce56 . . . 113.3(3) no
O58 Ce51 O88 . . . 75.3(4) no
O58 Ce51 O105 . . . 75.4(3) no
O58 Ce51 O146 . . . 138.6(4) no
O58 Ce51 O247 . . . 67.8(4) no
O58 Ce51 O272 . . . 109.1(4) no
O85 Ce51 Ce12 . . . 83.1(3) no
O85 Ce51 Ce14 . . . 34.2(2) no
O85 Ce51 Ce18 . . . 83.1(3) no
O85 Ce51 Ce56 . . . 33.9(2) no
O85 Ce51 O58 . . . 89.1(4) no
O85 Ce51 O88 . . . 147.2(3) no
O85 Ce51 O105 . . . 72.8(3) no
O85 Ce51 O146 . . . 72.0(3) no
O85 Ce51 O247 . . . 89.0(4) no
O85 Ce51 O272 . . . 146.9(3) no
O88 Ce51 Ce12 . . . 76.9(3) no
O88 Ce51 Ce14 . . . 113.2(2) no
O88 Ce51 Ce18 . . . 111.1(3) no
O88 Ce51 Ce56 . . . 170.3(3) no
O105 Ce51 Ce12 . . . 38.6(2) no
O105 Ce51 Ce14 . . . 38.7(2) no
O105 Ce51 Ce18 . . . 101.6(2) no
O105 Ce51 Ce56 . . . 101.9(2) no
O105 Ce51 O88 . . . 75.3(3) no
O105 Ce51 O272 . . . 137.5(3) no
O146 Ce51 Ce12 . . . 101.2(3) no
O146 Ce51 Ce14 . . . 101.1(2) no
O146 Ce51 Ce18 . . . 38.6(3) no
O146 Ce51 Ce56 . . . 38.3(2) no
O146 Ce51 O88 . . . 137.2(4) no
O146 Ce51 O105 . . . 128.9(3) no
O146 Ce51 O247 . . . 75.3(4) no
O146 Ce51 O272 . . . 76.4(3) no
O194 Ce51 Ce12 . . . 34.4(2) no
O194 Ce51 Ce14 . . . 83.3(3) no
O194 Ce51 Ce18 . . . 33.7(2) no
O194 Ce51 Ce56 . . . 83.5(2) no
O194 Ce51 O58 . . . 146.7(3) no
O194 Ce51 O85 . . . 91.3(4) no
O194 Ce51 O88 . . . 86.8(4) no
O194 Ce51 O105 . . . 72.9(3) no
O194 Ce51 O146 . . . 72.1(3) no
O194 Ce51 O247 . . . 145.5(4) no
O194 Ce51 O272 . . . 87.9(4) no
O247 Ce51 Ce12 . . . 172.1(3) no
O247 Ce51 Ce14 . . . 114.0(4) no
O247 Ce51 Ce18 . . . 112.5(3) no
O247 Ce51 Ce56 . . . 77.8(3) no
O247 Ce51 O88 . . . 110.5(4) no
O247 Ce51 O105 . . . 139.1(4) no
O247 Ce51 O272 . . . 73.7(5) no
O272 Ce51 Ce12 . . . 112.6(3) no
O272 Ce51 Ce14 . . . 171.3(3) no
O272 Ce51 Ce18 . . . 78.0(3) no
O272 Ce51 Ce56 . . . 113.5(2) no
O272 Ce51 O88 . . . 65.8(3) no
Ce59 Ce52 Ce53 . . . 90.07(3) no
Ce59 Ce52 Ce70 . . . 60.45(3) no
Ce64 Ce52 Ce53 . . . 137.27(3) no
Ce64 Ce52 Ce59 . . . 61.03(2) no
Ce64 Ce52 Ce70 . . . 78.89(3) no
Ce70 Ce52 Ce53 . . . 58.92(2) no
O8 Ce52 Ce53 . . . 81.6(3) no
O8 Ce52 Ce59 . . . 33.4(2) no
O8 Ce52 Ce64 . . . 87.5(2) no
O8 Ce52 Ce70 . . . 83.3(2) no
O8 Ce52 O28 . . . 92.5(4) no
O8 Ce52 O74 . . . 97.5(4) no
O8 Ce52 O94 . . . 76.1(3) no
O8 Ce52 O103 . . . 72.3(3) no
O8 Ce52 O137 . . . 149.7(4) no
O8 Ce52 O145 . . . 72.4(3) no
O8 Ce52 O353 . . . 140.7(4) no
O28 Ce52 Ce53 . . . 31.0(2) no
O28 Ce52 Ce59 . . . 83.4(3) no
O28 Ce52 Ce64 . . . 109.5(2) no
O28 Ce52 Ce70 . . . 31.7(2) no
O28 Ce52 O94 . . . 152.7(3) no
O28 Ce52 O103 . . . 72.8(3) no
O28 Ce52 O137 . . . 75.4(4) no
O28 Ce52 O145 . . . 69.7(3) no
O28 Ce52 O353 . . . 101.1(5) no
O74 Ce52 Ce53 . . . 171.5(2) no
O74 Ce52 Ce59 . . . 84.7(3) no
O74 Ce52 Ce64 . . . 34.3(2) no
O74 Ce52 Ce70 . . . 112.6(2) no
O74 Ce52 O28 . . . 141.1(3) no
O74 Ce52 O94 . . . 65.9(3) no
O74 Ce52 O103 . . . 74.8(3) no
O74 Ce52 O137 . . . 77.3(4) no
O74 Ce52 O145 . . . 149.0(3) no
O74 Ce52 O353 . . . 94.6(5) no
O94 Ce52 Ce53 . . . 121.7(2) no
O94 Ce52 Ce59 . . . 98.7(2) no
O94 Ce52 Ce64 . . . 94.9(2) no
O94 Ce52 Ce70 . . . 158.8(2) no
O103 Ce52 Ce53 . . . 97.0(2) no
O103 Ce52 Ce59 . . . 38.9(3) no
O103 Ce52 Ce64 . . . 40.6(2) no
O103 Ce52 Ce70 . . . 41.1(2) no
O103 Ce52 O94 . . . 124.8(4) no
O103 Ce52 O137 . . . 77.6(4) no
O103 Ce52 O145 . . . 126.2(3) no
O103 Ce52 O353 . . . 147.0(4) no
O137 Ce52 Ce53 . . . 99.2(3) no
O137 Ce52 Ce59 . . . 116.5(3) no
O137 Ce52 Ce64 . . . 71.3(3) no
O137 Ce52 Ce70 . . . 71.8(3) no
O137 Ce52 O94 . . . 125.8(4) no
O145 Ce52 Ce53 . . . 38.7(2) no
O145 Ce52 Ce59 . . . 99.2(2) no
O145 Ce52 Ce64 . . . 159.7(2) no
O145 Ce52 Ce70 . . . 95.6(2) no
O145 Ce52 O94 . . . 83.1(3) no
O145 Ce52 O137 . . . 125.9(4) no
O145 Ce52 O353 . . . 78.1(4) no
O353 Ce52 Ce53 . . . 91.4(4) no
O353 Ce52 Ce59 . . . 173.4(4) no
O353 Ce52 Ce64 . . . 121.1(4) no
O353 Ce52 Ce70 . . . 125.5(4) no
O353 Ce52 O94 . . . 75.1(5) no
O353 Ce52 O137 . . . 69.6(4) no
Ce61 Ce53 Ce52 . . . 90.94(3) no
Ce61 Ce53 Ce67 . . . 60.95(2) no
Ce61 Ce53 Ce70 . . . 60.86(3) no
Ce67 Ce53 Ce52 . . . 138.43(3) no
Ce67 Ce53 Ce70 . . . 79.60(3) no
Ce70 Ce53 Ce52 . . . 59.37(2) no
O28 Ce53 Ce52 . . . 31.7(2) no
O28 Ce53 Ce61 . . . 84.0(3) no
O28 Ce53 Ce67 . . . 110.0(2) no
O28 Ce53 Ce70 . . . 31.6(2) no
O28 Ce53 O95 . . . 152.4(3) no
O28 Ce53 O122 . . . 93.5(4) no
O28 Ce53 O140 . . . 99.8(4) no
O28 Ce53 O145 . . . 69.8(3) no
O28 Ce53 O193 . . . 75.4(4) no
O28 Ce53 O257 . . . 74.1(3) no
O95 Ce53 Ce52 . . . 120.80(18) no
O95 Ce53 Ce61 . . . 98.1(2) no
O95 Ce53 Ce67 . . . 94.64(19) no
O95 Ce53 Ce70 . . . 158.4(2) no
O122 Ce53 Ce52 . . . 81.8(3) no
O122 Ce53 Ce61 . . . 34.5(2) no
O122 Ce53 Ce67 . . . 88.2(3) no
O122 Ce53 Ce70 . . . 84.3(2) no
O122 Ce53 O95 . . . 74.7(3) no
O122 Ce53 O140 . . . 139.5(4) no
O122 Ce53 O145 . . . 72.1(3) no
O122 Ce53 O193 . . . 150.6(3) no
O122 Ce53 O257 . . . 72.5(3) no
O140 Ce53 Ce52 . . . 89.7(3) no
O140 Ce53 Ce61 . . . 173.5(3) no
O140 Ce53 Ce67 . . . 121.7(3) no
O140 Ce53 Ce70 . . . 124.6(3) no
O140 Ce53 O95 . . . 76.1(4) no
O140 Ce53 O145 . . . 76.9(4) no
O140 Ce53 O193 . . . 69.9(4) no
O145 Ce53 Ce52 . . . 38.1(2) no
O145 Ce53 Ce61 . . . 99.7(2) no
O145 Ce53 Ce67 . . . 160.1(2) no
O145 Ce53 Ce70 . . . 95.5(2) no
O145 Ce53 O95 . . . 82.8(3) no
O145 Ce53 O193 . . . 126.1(4) no
O173 Ce53 Ce52 . . . 173.6(2) no
O173 Ce53 Ce61 . . . 84.9(3) no
O173 Ce53 Ce67 . . . 35.2(2) no
O173 Ce53 Ce70 . . . 114.3(2) no
O173 Ce53 O28 . . . 142.6(3) no
O173 Ce53 O95 . . . 64.7(3) no
O173 Ce53 O122 . . . 97.3(4) no
O173 Ce53 O140 . . . 95.0(4) no
O173 Ce53 O145 . . . 147.5(3) no
O173 Ce53 O193 . . . 77.9(4) no
O173 Ce53 O257 . . . 75.2(3) no
O193 Ce53 Ce52 . . . 99.8(3) no
O193 Ce53 Ce61 . . . 116.3(3) no
O193 Ce53 Ce67 . . . 71.0(3) no
O193 Ce53 Ce70 . . . 71.9(3) no
O193 Ce53 O95 . . . 126.2(3) no
O257 Ce53 Ce52 . . . 98.6(2) no
O257 Ce53 Ce61 . . . 38.1(3) no
O257 Ce53 Ce67 . . . 40.3(2) no
O257 Ce53 Ce70 . . . 42.6(2) no
O257 Ce53 O95 . . . 123.3(3) no
O257 Ce53 O140 . . . 148.0(4) no
O257 Ce53 O145 . . . 126.8(3) no
O257 Ce53 O193 . . . 78.2(4) no
Ce26 Ce54 Ce22 . . . 62.29(2) no
Ce26 Ce54 Ce66 . . . 59.86(2) no
Ce26 Ce54 Ce67 . . . 60.65(2) no
Ce66 Ce54 Ce22 . . . 91.06(2) no
Ce67 Ce54 Ce22 . . . 118.99(3) no
Ce67 Ce54 Ce66 . . . 78.36(3) no
O62 Ce54 Ce22 . . . 31.8(2) no
O62 Ce54 Ce26 . . . 33.3(3) no
O62 Ce54 Ce66 . . . 82.5(3) no
O62 Ce54 Ce67 . . . 87.2(2) no
O62 Ce54 O80 . . . 72.5(3) no
O62 Ce54 O129 . . . 96.1(3) no
O62 Ce54 O209 . . . 75.5(3) no
O62 Ce54 O267 . . . 93.4(4) no
O62 Ce54 O290 . . . 71.3(3) no
O62 Ce54 O321 . . . 148.6(4) no
O62 Ce54 O322 . . . 139.3(4) no
O80 Ce54 Ce22 . . . 41.2(2) no
O80 Ce54 Ce26 . . . 98.5(2) no
O80 Ce54 Ce66 . . . 93.5(2) no
O80 Ce54 Ce67 . . . 159.0(2) no
O80 Ce54 O209 . . . 85.9(3) no
O80 Ce54 O321 . . . 126.3(4) no
O129 Ce54 Ce22 . . . 121.4(3) no
O129 Ce54 Ce26 . . . 82.8(2) no
O129 Ce54 Ce66 . . . 111.1(3) no
O129 Ce54 Ce67 . . . 33.1(3) no
O129 Ce54 O80 . . . 151.7(3) no
O129 Ce54 O209 . . . 66.0(4) no
O129 Ce54 O290 . . . 73.0(4) no
O129 Ce54 O321 . . . 76.5(4) no
O129 Ce54 O322 . . . 98.3(5) no
O209 Ce54 Ce22 . . . 73.5(2) no
O209 Ce54 Ce26 . . . 97.6(2) no
O209 Ce54 Ce66 . . . 157.2(2) no
O209 Ce54 Ce67 . . . 94.3(2) no
O267 Ce54 Ce22 . . . 84.8(3) no
O267 Ce54 Ce26 . . . 84.0(3) no
O267 Ce54 Ce66 . . . 31.8(3) no
O267 Ce54 Ce67 . . . 108.7(3) no
O267 Ce54 O80 . . . 68.4(4) no
O267 Ce54 O129 . . . 139.4(4) no
O267 Ce54 O209 . . . 154.2(4) no
O267 Ce54 O290 . . . 73.0(4) no
O267 Ce54 O321 . . . 75.0(4) no
O267 Ce54 O322 . . . 99.7(5) no
O290 Ce54 Ce22 . . . 97.9(2) no
O290 Ce54 Ce26 . . . 38.1(2) no
O290 Ce54 Ce66 . . . 41.2(2) no
O290 Ce54 Ce67 . . . 40.3(2) no
O290 Ce54 O80 . . . 124.2(3) no
O290 Ce54 O209 . . . 123.0(3) no
O290 Ce54 O321 . . . 77.4(4) no
O290 Ce54 O322 . . . 149.4(4) no
O321 Ce54 Ce22 . . . 159.8(3) no
O321 Ce54 Ce26 . . . 115.5(3) no
O321 Ce54 Ce66 . . . 72.3(3) no
O321 Ce54 Ce67 . . . 69.9(3) no
O321 Ce54 O209 . . . 125.7(3) no
O322 Ce54 Ce22 . . . 111.2(3) no
O322 Ce54 Ce26 . . . 172.4(3) no
O322 Ce54 Ce66 . . . 126.0(4) no
O322 Ce54 Ce67 . . . 123.5(4) no
O322 Ce54 O80 . . . 76.9(4) no
O322 Ce54 O209 . . . 76.1(4) no
O322 Ce54 O321 . . . 72.0(4) no
Ce13 Ce55 Ce28 . . . 62.70(2) no
Ce13 Ce55 Ce34 . . . 91.80(3) no
Ce28 Ce55 Ce34 . . . 59.28(2) no
Ce50 Ce55 Ce13 . . . 59.45(2) no
Ce50 Ce55 Ce28 . . . 91.37(3) no
Ce50 Ce55 Ce34 . . . 62.17(2) no
O26 Ce55 Ce13 . . . 98.4(2) no
O26 Ce55 Ce28 . . . 38.5(2) no
O26 Ce55 Ce34 . . . 39.1(2) no
O26 Ce55 Ce50 . . . 98.1(2) no
O27 Ce55 Ce13 . . . 84.1(3) no
O27 Ce55 Ce28 . . . 83.6(2) no
O27 Ce55 Ce34 . . . 33.0(3) no
O27 Ce55 Ce50 . . . 33.2(3) no
O27 Ce55 O26 . . . 72.1(4) no
O27 Ce55 O59 . . . 84.3(4) no
O27 Ce55 O101 . . . 71.7(4) no
O27 Ce55 O139 . . . 95.5(3) no
O27 Ce55 O141 . . . 84.8(4) no
O27 Ce55 O299 . . . 144.3(4) no
O27 Ce55 O334 . . . 145.8(4) no
O59 Ce55 Ce13 . . . 113.7(3) no
O59 Ce55 Ce28 . . . 167.7(3) no
O59 Ce55 Ce34 . . . 110.4(3) no
O59 Ce55 Ce50 . . . 77.2(3) no
O59 Ce55 O26 . . . 137.9(3) no
O59 Ce55 O101 . . . 76.0(3) no
O101 Ce55 Ce13 . . . 38.51(19) no
O101 Ce55 Ce28 . . . 97.9(2) no
O101 Ce55 Ce34 . . . 97.7(2) no
O101 Ce55 Ce50 . . . 38.5(2) no
O101 Ce55 O26 . . . 125.2(3) no
O139 Ce55 Ce13 . . . 33.9(2) no
O139 Ce55 Ce28 . . . 33.2(2) no
O139 Ce55 Ce34 . . . 84.2(2) no
O139 Ce55 Ce50 . . . 84.5(2) no
O139 Ce55 O26 . . . 71.8(3) no
O139 Ce55 O59 . . . 146.7(4) no
O139 Ce55 O101 . . . 72.4(3) no
O139 Ce55 O141 . . . 145.3(4) no
O139 Ce55 O299 . . . 84.9(4) no
O139 Ce55 O334 . . . 85.2(4) no
O141 Ce55 Ce13 . . . 168.5(3) no
O141 Ce55 Ce28 . . . 113.1(3) no
O141 Ce55 Ce34 . . . 77.2(2) no
O141 Ce55 Ce50 . . . 111.2(3) no
O141 Ce55 O26 . . . 75.4(3) no
O141 Ce55 O59 . . . 67.9(4) no
O141 Ce55 O101 . . . 138.6(3) no
O141 Ce55 O334 . . . 113.6(3) no
O299 Ce55 Ce13 . . . 112.5(3) no
O299 Ce55 Ce28 . . . 77.3(3) no
O299 Ce55 Ce34 . . . 112.3(3) no
O299 Ce55 Ce50 . . . 168.5(3) no
O299 Ce55 O26 . . . 74.3(3) no
O299 Ce55 O59 . . . 114.2(4) no
O299 Ce55 O101 . . . 140.3(4) no
O299 Ce55 O141 . . . 75.6(4) no
O299 Ce55 O334 . . . 69.9(3) no
O334 Ce55 Ce13 . . . 77.6(2) no
O334 Ce55 Ce28 . . . 112.1(3) no
O334 Ce55 Ce34 . . . 169.0(2) no
O334 Ce55 Ce50 . . . 113.5(2) no
O334 Ce55 O26 . . . 138.8(3) no
O334 Ce55 O59 . . . 77.1(4) no
O334 Ce55 O101 . . . 76.0(3) no
Ce18 Ce56 Ce65 . . . 90.34(3) no
Ce18 Ce56 Ce69 . . . 60.25(2) no
Ce51 Ce56 Ce18 . . . 60.30(2) no
Ce51 Ce56 Ce65 . . . 136.54(4) no
Ce51 Ce56 Ce69 . . . 78.51(3) no
Ce69 Ce56 Ce65 . . . 58.53(3) no
O13 Ce56 Ce18 . . . 34.3(2) no
O13 Ce56 Ce51 . . . 88.2(2) no
O13 Ce56 Ce65 . . . 80.9(2) no
O13 Ce56 Ce69 . . . 83.0(3) no
O13 Ce56 O49 . . . 71.1(3) no
O13 Ce56 O146 . . . 72.6(4) no
O13 Ce56 O170 . . . 92.0(4) no
O13 Ce56 O177 . . . 151.1(5) no
O13 Ce56 O198 . . . 75.5(3) no
O13 Ce56 O397 . . . 137.8(5) no
O49 Ce56 Ce18 . . . 98.7(2) no
O49 Ce56 Ce51 . . . 158.8(2) no
O49 Ce56 Ce65 . . . 37.7(3) no
O49 Ce56 Ce69 . . . 94.0(3) no
O49 Ce56 O177 . . . 124.7(4) no
O49 Ce56 O198 . . . 85.4(3) no
O49 Ce56 O397 . . . 79.0(4) no
O85 Ce56 Ce18 . . . 84.0(3) no
O85 Ce56 Ce51 . . . 34.6(3) no
O85 Ce56 Ce65 . . . 171.1(3) no
O85 Ce56 Ce69 . . . 112.6(3) no
O85 Ce56 O13 . . . 98.0(4) no
O85 Ce56 O49 . . . 150.2(4) no
O85 Ce56 O146 . . . 74.3(4) no
O85 Ce56 O170 . . . 139.2(4) no
O85 Ce56 O177 . . . 78.2(4) no
O85 Ce56 O198 . . . 64.8(4) no
O85 Ce56 O397 . . . 93.4(5) no
O146 Ce56 Ce18 . . . 38.4(3) no
O146 Ce56 Ce51 . . . 40.0(2) no
O146 Ce56 Ce65 . . . 97.0(2) no
O146 Ce56 Ce69 . . . 41.5(2) no
O146 Ce56 O49 . . . 124.9(3) no
O146 Ce56 O177 . . . 78.9(5) no
O146 Ce56 O198 . . . 123.0(3) no
O146 Ce56 O397 . . . 149.3(5) no
O170 Ce56 Ce18 . . . 82.4(3) no
O170 Ce56 Ce51 . . . 107.2(3) no
O170 Ce56 Ce65 . . . 32.5(3) no
O170 Ce56 Ce69 . . . 29.8(3) no
O170 Ce56 O49 . . . 70.1(4) no
O170 Ce56 O146 . . . 71.2(4) no
O170 Ce56 O177 . . . 74.4(4) no
O170 Ce56 O198 . . . 155.2(4) no
O170 Ce56 O397 . . . 105.3(5) no
O177 Ce56 Ce18 . . . 117.3(4) no
O177 Ce56 Ce51 . . . 72.3(3) no
O177 Ce56 Ce65 . . . 98.5(2) no
O177 Ce56 Ce69 . . . 72.6(4) no
O177 Ce56 O198 . . . 125.8(4) no
O198 Ce56 Ce18 . . . 97.5(2) no
O198 Ce56 Ce51 . . . 94.00(19) no
O198 Ce56 Ce65 . . . 122.9(2) no
O198 Ce56 Ce69 . . . 157.5(2) no
O397 Ce56 Ce18 . . . 170.4(5) no
O397 Ce56 Ce51 . . . 121.1(3) no
O397 Ce56 Ce65 . . . 93.3(4) no
O397 Ce56 Ce69 . . . 129.0(5) no
O397 Ce56 O177 . . . 71.0(6) no
O397 Ce56 O198 . . . 73.1(5) no
Ce25 Ce57 Ce28 . . . 66.13(2) no
Ce25 Ce57 Ce34 . . . 95.01(3) no
Ce25 Ce57 Ce41 . . . 59.15(2) no
Ce28 Ce57 Ce34 . . . 59.83(2) no
Ce28 Ce57 Ce41 . . . 94.52(3) no
Ce34 Ce57 Ce41 . . . 65.57(2) no
O15 Ce57 Ce25 . . . 37.3(2) no
O15 Ce57 Ce28 . . . 100.3(2) no
O15 Ce57 Ce34 . . . 100.7(2) no
O15 Ce57 Ce41 . . . 38.3(2) no
O15 Ce57 O26 . . . 128.1(3) no
O15 Ce57 O114 . . . 76.8(4) no
O15 Ce57 O126 . . . 76.5(4) no
O15 Ce57 O158 . . . 140.1(4) no
O15 Ce57 O288 . . . 137.8(4) no
O26 Ce57 Ce25 . . . 101.8(2) no
O26 Ce57 Ce28 . . . 38.4(2) no
O26 Ce57 Ce34 . . . 39.2(2) no
O26 Ce57 Ce41 . . . 101.6(2) no
O26 Ce57 O114 . . . 137.2(4) no
O26 Ce57 O126 . . . 137.7(4) no
O26 Ce57 O158 . . . 75.6(4) no
O26 Ce57 O288 . . . 74.7(4) no
O40 Ce57 Ce25 . . . 82.5(3) no
O40 Ce57 Ce28 . . . 82.8(2) no
O40 Ce57 Ce34 . . . 33.9(3) no
O40 Ce57 Ce41 . . . 33.7(3) no
O40 Ce57 O15 . . . 71.7(3) no
O40 Ce57 O26 . . . 72.8(4) no
O40 Ce57 O78 . . . 91.1(4) no
O40 Ce57 O114 . . . 87.4(4) no
O40 Ce57 O126 . . . 146.6(4) no
O40 Ce57 O158 . . . 90.3(4) no
O40 Ce57 O288 . . . 146.5(4) no
O78 Ce57 Ce25 . . . 35.2(3) no
O78 Ce57 Ce28 . . . 33.5(3) no
O78 Ce57 Ce34 . . . 83.5(3) no
O78 Ce57 Ce41 . . . 83.8(3) no
O78 Ce57 O15 . . . 72.3(4) no
O78 Ce57 O26 . . . 71.9(3) no
O78 Ce57 O114 . . . 147.9(4) no
O78 Ce57 O126 . . . 88.6(5) no
O78 Ce57 O158 . . . 145.4(4) no
O78 Ce57 O288 . . . 86.5(4) no
O114 Ce57 Ce25 . . . 113.0(3) no
O114 Ce57 Ce28 . . . 170.1(3) no
O114 Ce57 Ce34 . . . 111.1(3) no
O114 Ce57 Ce41 . . . 77.3(3) no
O114 Ce57 O126 . . . 75.7(5) no
O126 Ce57 Ce25 . . . 78.2(3) no
O126 Ce57 Ce28 . . . 113.0(4) no
O126 Ce57 Ce34 . . . 172.1(4) no
O126 Ce57 Ce41 . . . 113.4(3) no
O158 Ce57 Ce25 . . . 172.8(3) no
O158 Ce57 Ce28 . . . 112.7(3) no
O158 Ce57 Ce34 . . . 78.6(3) no
O158 Ce57 Ce41 . . . 114.5(3) no
O158 Ce57 O114 . . . 66.8(4) no
O158 Ce57 O126 . . . 108.4(5) no
O158 Ce57 O288 . . . 73.8(4) no
O288 Ce57 Ce25 . . . 112.2(3) no
O288 Ce57 Ce28 . . . 77.0(3) no
O288 Ce57 Ce34 . . . 112.9(3) no
O288 Ce57 Ce41 . . . 170.2(3) no
O288 Ce57 O114 . . . 111.6(4) no
O288 Ce57 O126 . . . 66.7(4) no
Ce39 Ce58 Ce45 . . . 90.54(2) no
Ce39 Ce58 Ce62 . . . 60.17(2) no
Ce62 Ce58 Ce45 . . . 58.96(2) no
Ce64 Ce58 Ce39 . . . 61.06(2) no
Ce64 Ce58 Ce45 . . . 136.87(3) no
Ce64 Ce58 Ce62 . . . 78.28(3) no
O22 Ce58 Ce39 . . . 33.0(3) no
O22 Ce58 Ce45 . . . 82.9(3) no
O22 Ce58 Ce62 . . . 83.2(2) no
O22 Ce58 Ce64 . . . 87.1(3) no
O22 Ce58 O69 . . . 72.6(4) no
O22 Ce58 O184 . . . 93.9(4) no
O22 Ce58 O214 . . . 149.7(4) no
O22 Ce58 O216 . . . 71.5(3) no
O22 Ce58 O245 . . . 75.6(3) no
O22 Ce58 O399 . . . 140.0(4) no
O69 Ce58 Ce39 . . . 98.6(2) no
O69 Ce58 Ce45 . . . 38.6(2) no
O69 Ce58 Ce62 . . . 95.2(2) no
O69 Ce58 Ce64 . . . 159.3(2) no
O69 Ce58 O214 . . . 125.8(4) no
O69 Ce58 O245 . . . 83.0(4) no
O69 Ce58 O399 . . . 79.3(4) no
O184 Ce58 Ce39 . . . 84.2(3) no
O184 Ce58 Ce45 . . . 31.0(3) no
O184 Ce58 Ce62 . . . 32.2(3) no
O184 Ce58 Ce64 . . . 109.1(3) no
O184 Ce58 O69 . . . 69.6(4) no
O184 Ce58 O214 . . . 74.4(4) no
O184 Ce58 O216 . . . 73.5(4) no
O184 Ce58 O245 . . . 152.6(4) no
O184 Ce58 O399 . . . 102.4(5) no
O214 Ce58 Ce39 . . . 116.8(3) no
O214 Ce58 Ce45 . . . 98.3(3) no
O214 Ce58 Ce62 . . . 72.0(3) no
O214 Ce58 Ce64 . . . 71.3(3) no
O214 Ce58 O245 . . . 126.3(4) no
O216 Ce58 Ce39 . . . 38.6(2) no
O216 Ce58 Ce45 . . . 97.3(2) no
O216 Ce58 Ce62 . . . 41.3(2) no
O216 Ce58 Ce64 . . . 40.1(2) no
O216 Ce58 O69 . . . 125.6(3) no
O216 Ce58 O214 . . . 78.3(4) no
O216 Ce58 O245 . . . 124.5(3) no
O216 Ce58 O399 . . . 148.1(4) no
O224 Ce58 Ce39 . . . 84.2(3) no
O224 Ce58 Ce45 . . . 170.4(3) no
O224 Ce58 Ce62 . . . 111.5(3) no
O224 Ce58 Ce64 . . . 33.8(3) no
O224 Ce58 O22 . . . 96.8(4) no
O224 Ce58 O69 . . . 150.2(4) no
O224 Ce58 O184 . . . 139.9(4) no
O224 Ce58 O214 . . . 77.1(4) no
O224 Ce58 O216 . . . 73.7(4) no
O224 Ce58 O245 . . . 67.3(4) no
O224 Ce58 O399 . . . 93.7(4) no
O245 Ce58 Ce39 . . . 98.6(2) no
O245 Ce58 Ce45 . . . 121.6(3) no
O245 Ce58 Ce62 . . . 158.3(2) no
O245 Ce58 Ce64 . . . 95.8(3) no
O399 Ce58 Ce39 . . . 171.7(4) no
O399 Ce58 Ce45 . . . 92.6(4) no
O399 Ce58 Ce62 . . . 127.9(4) no
O399 Ce58 Ce64 . . . 120.3(3) no
O399 Ce58 O214 . . . 70.3(5) no
O399 Ce58 O245 . . . 73.2(4) no
Ce52 Ce59 Ce36 . . . 61.98(2) no
Ce52 Ce59 Ce64 . . . 59.39(2) no
Ce52 Ce59 Ce70 . . . 60.72(2) no
Ce64 Ce59 Ce36 . . . 117.53(3) no
Ce64 Ce59 Ce70 . . . 78.26(3) no
Ce70 Ce59 Ce36 . . . 91.27(3) no
O8 Ce59 Ce36 . . . 31.6(3) no
O8 Ce59 Ce52 . . . 33.4(3) no
O8 Ce59 Ce64 . . . 86.0(3) no
O8 Ce59 Ce70 . . . 83.5(3) no
O8 Ce59 O83 . . . 71.8(4) no
O8 Ce59 O103 . . . 70.5(4) no
O8 Ce59 O182 . . . 150.4(4) no
O8 Ce59 O224 . . . 96.6(4) no
O8 Ce59 O245 . . . 77.3(4) no
O8 Ce59 O264 . . . 92.9(4) no
O8 Ce59 O392 . . . 138.5(5) no
O83 Ce59 Ce36 . . . 40.5(2) no
O83 Ce59 Ce52 . . . 98.1(2) no
O83 Ce59 Ce64 . . . 157.2(2) no
O83 Ce59 Ce70 . . . 93.9(2) no
O83 Ce59 O245 . . . 85.3(4) no
O103 Ce59 Ce36 . . . 96.6(2) no
O103 Ce59 Ce52 . . . 37.2(2) no
O103 Ce59 Ce64 . . . 39.9(2) no
O103 Ce59 Ce70 . . . 41.8(2) no
O103 Ce59 O83 . . . 123.6(3) no
O103 Ce59 O182 . . . 80.1(4) no
O103 Ce59 O245 . . . 124.2(3) no
O103 Ce59 O392 . . . 151.0(4) no
O182 Ce59 Ce36 . . . 158.3(3) no
O182 Ce59 Ce52 . . . 117.3(3) no
O182 Ce59 Ce64 . . . 73.3(3) no
O182 Ce59 Ce70 . . . 72.0(3) no
O182 Ce59 O83 . . . 124.9(4) no
O182 Ce59 O245 . . . 124.3(4) no
O224 Ce59 Ce36 . . . 122.1(2) no
O224 Ce59 Ce52 . . . 82.9(3) no
O224 Ce59 Ce64 . . . 33.3(3) no
O224 Ce59 Ce70 . . . 110.8(3) no
O224 Ce59 O83 . . . 151.6(4) no
O224 Ce59 O103 . . . 73.0(4) no
O224 Ce59 O182 . . . 77.7(4) no
O224 Ce59 O245 . . . 66.7(4) no
O224 Ce59 O392 . . . 98.5(5) no
O245 Ce59 Ce36 . . . 75.2(3) no
O245 Ce59 Ce52 . . . 99.7(2) no
O245 Ce59 Ce64 . . . 94.9(3) no
O245 Ce59 Ce70 . . . 160.1(2) no
O264 Ce59 Ce36 . . . 83.8(3) no
O264 Ce59 Ce52 . . . 83.7(2) no
O264 Ce59 Ce64 . . . 108.8(3) no
O264 Ce59 Ce70 . . . 31.4(3) no
O264 Ce59 O83 . . . 68.5(4) no
O264 Ce59 O103 . . . 73.1(4) no
O264 Ce59 O182 . . . 74.8(4) no
O264 Ce59 O224 . . . 139.3(4) no
O264 Ce59 O245 . . . 153.8(4) no
O264 Ce59 O392 . . . 100.2(5) no
O392 Ce59 Ce36 . . . 110.9(4) no
O392 Ce59 Ce52 . . . 171.7(3) no
O392 Ce59 Ce64 . . . 125.2(4) no
O392 Ce59 Ce70 . . . 125.6(4) no
O392 Ce59 O83 . . . 76.7(5) no
O392 Ce59 O182 . . . 70.9(5) no
O392 Ce59 O245 . . . 73.6(4) no
Ce25 Ce60 Ce16 . . . 91.23(3) no
Ce25 Ce60 Ce41 . . . 58.76(2) no
Ce35 Ce60 Ce16 . . . 58.56(2) no
Ce35 Ce60 Ce25 . . . 62.69(2) no
Ce35 Ce60 Ce41 . . . 90.88(3) no
Ce41 Ce60 Ce16 . . . 62.34(2) no
O15 Ce60 Ce16 . . . 97.7(2) no
O15 Ce60 Ce25 . . . 37.5(2) no
O15 Ce60 Ce35 . . . 97.1(2) no
O15 Ce60 Ce41 . . . 38.7(2) no
O24 Ce60 Ce16 . . . 82.9(3) no
O24 Ce60 Ce25 . . . 33.1(3) no
O24 Ce60 Ce35 . . . 33.4(3) no
O24 Ce60 Ce41 . . . 82.7(3) no
O24 Ce60 O15 . . . 70.5(3) no
O24 Ce60 O63 . . . 93.7(4) no
O24 Ce60 O84 . . . 71.3(4) no
O24 Ce60 O136 . . . 85.8(4) no
O24 Ce60 O235 . . . 145.7(4) no
O24 Ce60 O275 . . . 86.4(4) no
O24 Ce60 O306 . . . 145.1(4) no
O63 Ce60 Ce16 . . . 33.4(3) no
O63 Ce60 Ce25 . . . 83.2(3) no
O63 Ce60 Ce35 . . . 83.1(3) no
O63 Ce60 Ce41 . . . 33.0(3) no
O63 Ce60 O15 . . . 71.7(3) no
O63 Ce60 O84 . . . 70.9(3) no
O63 Ce60 O136 . . . 145.6(4) no
O63 Ce60 O235 . . . 86.3(4) no
O63 Ce60 O275 . . . 145.8(4) no
O63 Ce60 O306 . . . 85.3(4) no
O84 Ce60 Ce16 . . . 37.6(2) no
O84 Ce60 Ce25 . . . 97.3(2) no
O84 Ce60 Ce35 . . . 38.0(2) no
O84 Ce60 Ce41 . . . 96.7(2) no
O84 Ce60 O15 . . . 123.4(3) no
O136 Ce60 Ce16 . . . 113.1(3) no
O136 Ce60 Ce25 . . . 111.9(3) no
O136 Ce60 Ce35 . . . 77.7(3) no
O136 Ce60 Ce41 . . . 168.1(3) no
O136 Ce60 O15 . . . 138.5(4) no
O136 Ce60 O84 . . . 76.5(3) no
O235 Ce60 Ce16 . . . 78.3(3) no
O235 Ce60 Ce25 . . . 169.1(3) no
O235 Ce60 Ce35 . . . 113.1(3) no
O235 Ce60 Ce41 . . . 112.6(3) no
O235 Ce60 O15 . . . 140.2(4) no
O235 Ce60 O84 . . . 76.4(3) no
O235 Ce60 O136 . . . 75.7(4) no
O275 Ce60 Ce16 . . . 169.0(3) no
O275 Ce60 Ce25 . . . 78.3(3) no
O275 Ce60 Ce35 . . . 112.6(3) no
O275 Ce60 Ce41 . . . 113.7(3) no
O275 Ce60 O15 . . . 76.2(4) no
O275 Ce60 O84 . . . 139.7(4) no
O275 Ce60 O136 . . . 68.6(4) no
O275 Ce60 O235 . . . 112.3(4) no
O275 Ce60 O306 . . . 75.8(5) no
O306 Ce60 Ce16 . . . 112.0(3) no
O306 Ce60 Ce25 . . . 112.7(3) no
O306 Ce60 Ce35 . . . 168.0(3) no
O306 Ce60 Ce41 . . . 77.6(3) no
O306 Ce60 O15 . . . 76.1(4) no
O306 Ce60 O84 . . . 139.2(4) no
O306 Ce60 O136 . . . 114.0(4) no
O306 Ce60 O235 . . . 69.2(4) no
Ce53 Ce61 Ce36 . . . 62.06(2) no
Ce53 Ce61 Ce67 . . . 59.80(2) no
Ce53 Ce61 Ce70 . . . 60.64(3) no
Ce67 Ce61 Ce36 . . . 117.82(3) no
Ce67 Ce61 Ce70 . . . 78.96(3) no
Ce70 Ce61 Ce36 . . . 91.11(3) no
O83 Ce61 Ce36 . . . 40.2(2) no
O83 Ce61 Ce53 . . . 98.2(2) no
O83 Ce61 Ce67 . . . 157.5(2) no
O83 Ce61 Ce70 . . . 94.5(2) no
O83 Ce61 O209 . . . 85.0(3) no
O83 Ce61 O340 . . . 125.6(4) no
O83 Ce61 O404 . . . 77.5(4) no
O122 Ce61 Ce36 . . . 30.4(3) no
O122 Ce61 Ce53 . . . 34.9(3) no
O122 Ce61 Ce67 . . . 87.4(3) no
O122 Ce61 Ce70 . . . 84.4(3) no
O122 Ce61 O83 . . . 70.5(3) no
O122 Ce61 O129 . . . 97.4(4) no
O122 Ce61 O209 . . . 77.5(3) no
O122 Ce61 O257 . . . 72.7(3) no
O122 Ce61 O264 . . . 93.1(3) no
O122 Ce61 O340 . . . 153.5(4) no
O122 Ce61 O404 . . . 136.0(4) no
O129 Ce61 Ce36 . . . 122.4(3) no
O129 Ce61 Ce53 . . . 83.1(2) no
O129 Ce61 Ce67 . . . 32.8(3) no
O129 Ce61 Ce70 . . . 110.9(3) no
O129 Ce61 O83 . . . 151.0(4) no
O129 Ce61 O209 . . . 66.4(4) no
O129 Ce61 O257 . . . 72.1(4) no
O129 Ce61 O264 . . . 139.4(4) no
O129 Ce61 O340 . . . 76.7(4) no
O129 Ce61 O404 . . . 96.2(5) no
O209 Ce61 Ce36 . . . 76.2(2) no
O209 Ce61 Ce53 . . . 100.6(2) no
O209 Ce61 Ce67 . . . 94.3(2) no
O209 Ce61 Ce70 . . . 161.0(2) no
O257 Ce61 Ce36 . . . 97.7(3) no
O257 Ce61 Ce53 . . . 37.9(2) no
O257 Ce61 Ce67 . . . 39.5(3) no
O257 Ce61 Ce70 . . . 42.5(2) no
O257 Ce61 O83 . . . 125.2(4) no
O257 Ce61 O209 . . . 124.3(3) no
O257 Ce61 O340 . . . 80.9(4) no
O257 Ce61 O404 . . . 151.0(4) no
O264 Ce61 Ce36 . . . 83.5(2) no
O264 Ce61 Ce53 . . . 83.6(2) no
O264 Ce61 Ce67 . . . 109.6(3) no
O264 Ce61 Ce70 . . . 31.5(3) no
O264 Ce61 O83 . . . 69.1(3) no
O264 Ce61 O209 . . . 154.0(3) no
O264 Ce61 O257 . . . 73.9(3) no
O264 Ce61 O340 . . . 76.7(4) no
O264 Ce61 O404 . . . 103.0(5) no
O340 Ce61 Ce36 . . . 159.7(3) no
O340 Ce61 Ce53 . . . 118.9(3) no
O340 Ce61 Ce67 . . . 73.6(3) no
O340 Ce61 Ce70 . . . 74.1(3) no
O340 Ce61 O209 . . . 121.4(4) no
O404 Ce61 Ce36 . . . 110.7(4) no
O404 Ce61 Ce53 . . . 170.0(4) no
O404 Ce61 Ce67 . . . 123.4(4) no
O404 Ce61 Ce70 . . . 128.3(4) no
O404 Ce61 O209 . . . 70.2(4) no
O404 Ce61 O340 . . . 70.5(5) no
Ce39 Ce62 Ce24 . . . 63.07(2) no
Ce39 Ce62 Ce45 . . . 91.71(3) no
Ce39 Ce62 Ce58 . . . 59.14(2) no
Ce45 Ce62 Ce24 . . . 58.44(2) no
Ce45 Ce62 Ce58 . . . 61.96(2) no
Ce58 Ce62 Ce24 . . . 90.60(3) no
O9 Ce62 Ce24 . . . 33.9(3) no
O9 Ce62 Ce39 . . . 33.3(3) no
O9 Ce62 Ce45 . . . 83.6(3) no
O9 Ce62 Ce58 . . . 83.2(3) no
O9 Ce62 O48 . . . 71.1(3) no
O9 Ce62 O133 . . . 146.0(4) no
O9 Ce62 O138 . . . 82.6(3) no
O9 Ce62 O184 . . . 94.8(4) no
O9 Ce62 O216 . . . 72.0(3) no
O9 Ce62 O303 . . . 145.1(4) no
O9 Ce62 O304 . . . 87.4(4) no
O48 Ce62 Ce24 . . . 37.24(19) no
O48 Ce62 Ce39 . . . 97.4(2) no
O48 Ce62 Ce45 . . . 38.4(2) no
O48 Ce62 Ce58 . . . 96.9(2) no
O48 Ce62 O216 . . . 123.5(3) no
O133 Ce62 Ce24 . . . 167.0(3) no
O133 Ce62 Ce39 . . . 113.3(3) no
O133 Ce62 Ce45 . . . 110.6(3) no
O133 Ce62 Ce58 . . . 77.4(3) no
O133 Ce62 O48 . . . 138.5(4) no
O133 Ce62 O138 . . . 116.3(3) no
O133 Ce62 O216 . . . 75.6(3) no
O133 Ce62 O304 . . . 75.3(4) no
O138 Ce62 Ce24 . . . 76.1(2) no
O138 Ce62 Ce39 . . . 108.8(2) no
O138 Ce62 Ce45 . . . 113.7(2) no
O138 Ce62 Ce58 . . . 165.6(2) no
O138 Ce62 O48 . . . 76.0(3) no
O138 Ce62 O216 . . . 137.8(3) no
O184 Ce62 Ce24 . . . 82.8(3) no
O184 Ce62 Ce39 . . . 84.5(3) no
O184 Ce62 Ce45 . . . 32.5(3) no
O184 Ce62 Ce58 . . . 33.8(3) no
O184 Ce62 O48 . . . 70.8(4) no
O184 Ce62 O133 . . . 84.5(4) no
O184 Ce62 O138 . . . 145.6(4) no
O184 Ce62 O216 . . . 71.4(4) no
O184 Ce62 O303 . . . 86.5(4) no
O184 Ce62 O304 . . . 145.8(4) no
O216 Ce62 Ce24 . . . 97.9(2) no
O216 Ce62 Ce39 . . . 38.8(2) no
O216 Ce62 Ce45 . . . 96.7(3) no
O216 Ce62 Ce58 . . . 37.6(2) no
O303 Ce62 Ce24 . . . 112.6(3) no
O303 Ce62 Ce39 . . . 170.5(3) no
O303 Ce62 Ce45 . . . 79.0(3) no
O303 Ce62 Ce58 . . . 113.8(3) no
O303 Ce62 O48 . . . 76.6(3) no
O303 Ce62 O133 . . . 68.9(4) no
O303 Ce62 O138 . . . 77.2(4) no
O303 Ce62 O216 . . . 139.7(3) no
O303 Ce62 O304 . . . 110.6(4) no
O304 Ce62 Ce24 . . . 114.6(3) no
O304 Ce62 Ce39 . . . 78.7(3) no
O304 Ce62 Ce45 . . . 170.3(3) no
O304 Ce62 Ce58 . . . 113.4(3) no
O304 Ce62 O48 . . . 140.5(3) no
O304 Ce62 O138 . . . 68.5(4) no
O304 Ce62 O216 . . . 77.0(4) no
Ce21 Ce63 Ce7 . . . 58.83(2) no
Ce47 Ce63 Ce7 . . . 91.61(3) no
Ce47 Ce63 Ce21 . . . 62.36(2) no
Ce49 Ce63 Ce7 . . . 62.56(2) no
Ce49 Ce63 Ce21 . . . 91.28(3) no
Ce49 Ce63 Ce47 . . . 59.53(2) no
O12 Ce63 Ce7 . . . 38.79(19) no
O12 Ce63 Ce21 . . . 38.1(2) no
O12 Ce63 Ce47 . . . 97.7(2) no
O12 Ce63 Ce49 . . . 98.19(19) no
O89 Ce63 Ce7 . . . 33.6(2) no
O89 Ce63 Ce21 . . . 84.0(3) no
O89 Ce63 Ce47 . . . 84.6(2) no
O89 Ce63 Ce49 . . . 33.5(2) no
O89 Ce63 O12 . . . 72.4(3) no
O89 Ce63 O92 . . . 95.7(4) no
O89 Ce63 O161 . . . 144.9(4) no
O89 Ce63 O172 . . . 145.8(3) no
O89 Ce63 O205 . . . 71.6(4) no
O89 Ce63 O280 . . . 83.8(4) no
O89 Ce63 O378 . . . 84.7(4) no
O92 Ce63 Ce7 . . . 83.9(2) no
O92 Ce63 Ce21 . . . 33.5(2) no
O92 Ce63 Ce47 . . . 33.2(3) no
O92 Ce63 Ce49 . . . 84.1(3) no
O92 Ce63 O12 . . . 71.6(3) no
O92 Ce63 O161 . . . 84.5(4) no
O92 Ce63 O172 . . . 85.0(4) no
O92 Ce63 O205 . . . 71.6(4) no
O92 Ce63 O280 . . . 146.0(4) no
O92 Ce63 O378 . . . 144.8(4) no
O161 Ce63 Ce7 . . . 112.3(3) no
O161 Ce63 Ce21 . . . 77.0(3) no
O161 Ce63 Ce47 . . . 111.2(3) no
O161 Ce63 Ce49 . . . 167.9(3) no
O161 Ce63 O12 . . . 74.5(3) no
O161 Ce63 O172 . . . 69.2(4) no
O161 Ce63 O205 . . . 139.5(4) no
O161 Ce63 O280 . . . 77.3(4) no
O161 Ce63 O378 . . . 114.7(4) no
O172 Ce63 Ce7 . . . 168.5(3) no
O172 Ce63 Ce21 . . . 111.9(3) no
O172 Ce63 Ce47 . . . 77.5(2) no
O172 Ce63 Ce49 . . . 113.4(2) no
O172 Ce63 O12 . . . 138.3(3) no
O172 Ce63 O205 . . . 76.3(4) no
O172 Ce63 O378 . . . 75.9(4) no
O205 Ce63 Ce7 . . . 97.4(3) no
O205 Ce63 Ce21 . . . 97.3(2) no
O205 Ce63 Ce47 . . . 38.4(2) no
O205 Ce63 Ce49 . . . 38.1(3) no
O205 Ce63 O12 . . . 124.4(3) no
O280 Ce63 Ce7 . . . 77.1(3) no
O280 Ce63 Ce21 . . . 113.4(2) no
O280 Ce63 Ce47 . . . 168.0(3) no
O280 Ce63 Ce49 . . . 110.7(3) no
O280 Ce63 O12 . . . 76.0(3) no
O280 Ce63 O172 . . . 114.0(4) no
O280 Ce63 O205 . . . 138.2(4) no
O280 Ce63 O378 . . . 69.1(3) no
O378 Ce63 Ce7 . . . 112.2(3) no
O378 Ce63 Ce21 . . . 168.1(3) no
O378 Ce63 Ce47 . . . 112.6(3) no
O378 Ce63 Ce49 . . . 77.1(3) no
O378 Ce63 O12 . . . 140.0(4) no
O378 Ce63 O205 . . . 75.3(4) no
Ce52 Ce64 Ce39 . . . 66.08(2) no
Ce52 Ce64 Ce58 . . . 95.61(3) no
Ce52 Ce64 Ce59 . . . 59.58(2) no
Ce58 Ce64 Ce39 . . . 59.52(2) no
Ce58 Ce64 Ce59 . . . 65.85(3) no
Ce59 Ce64 Ce39 . . . 94.24(3) no
O74 Ce64 Ce39 . . . 33.9(3) no
O74 Ce64 Ce52 . . . 34.9(3) no
O74 Ce64 Ce58 . . . 83.9(3) no
O74 Ce64 Ce59 . . . 83.8(3) no
O74 Ce64 O103 . . . 72.4(3) no
O74 Ce64 O188 . . . 147.9(4) no
O74 Ce64 O216 . . . 71.8(3) no
O74 Ce64 O224 . . . 92.2(4) no
O74 Ce64 O344 . . . 84.8(4) no
O74 Ce64 O356 . . . 89.1(4) no
O74 Ce64 O362 . . . 145.2(4) no
O103 Ce64 Ce39 . . . 100.6(2) no
O103 Ce64 Ce52 . . . 37.6(2) no
O103 Ce64 Ce58 . . . 101.5(3) no
O103 Ce64 Ce59 . . . 38.7(3) no
O103 Ce64 O188 . . . 76.4(4) no
O103 Ce64 O344 . . . 135.1(4) no
O188 Ce64 Ce39 . . . 168.4(4) no
O188 Ce64 Ce52 . . . 113.2(4) no
O188 Ce64 Ce58 . . . 109.7(4) no
O188 Ce64 Ce59 . . . 76.3(3) no
O216 Ce64 Ce39 . . . 38.0(2) no
O216 Ce64 Ce52 . . . 101.2(2) no
O216 Ce64 Ce58 . . . 38.2(2) no
O216 Ce64 Ce59 . . . 100.7(3) no
O216 Ce64 O103 . . . 127.8(3) no
O216 Ce64 O188 . . . 136.3(4) no
O216 Ce64 O344 . . . 76.8(4) no
O216 Ce64 O356 . . . 139.8(4) no
O224 Ce64 Ce39 . . . 82.8(2) no
O224 Ce64 Ce52 . . . 84.0(3) no
O224 Ce64 Ce58 . . . 33.8(2) no
O224 Ce64 Ce59 . . . 34.5(2) no
O224 Ce64 O103 . . . 73.0(4) no
O224 Ce64 O188 . . . 85.5(4) no
O224 Ce64 O216 . . . 71.8(3) no
O224 Ce64 O344 . . . 147.7(4) no
O224 Ce64 O356 . . . 146.0(4) no
O224 Ce64 O362 . . . 90.8(5) no
O344 Ce64 Ce39 . . . 76.9(3) no
O344 Ce64 Ce52 . . . 109.6(3) no
O344 Ce64 Ce58 . . . 114.1(3) no
O344 Ce64 Ce59 . . . 168.5(3) no
O344 Ce64 O188 . . . 113.4(4) no
O356 Ce64 Ce39 . . . 114.6(3) no
O356 Ce64 Ce52 . . . 77.9(3) no
O356 Ce64 Ce58 . . . 172.9(3) no
O356 Ce64 Ce59 . . . 112.3(3) no
O356 Ce64 O103 . . . 75.1(4) no
O356 Ce64 O188 . . . 75.7(5) no
O356 Ce64 O344 . . . 66.2(4) no
O362 Ce64 Ce39 . . . 112.7(3) no
O362 Ce64 Ce52 . . . 174.7(4) no
O362 Ce64 Ce58 . . . 79.6(3) no
O362 Ce64 Ce59 . . . 116.0(4) no
O362 Ce64 O103 . . . 140.9(4) no
O362 Ce64 O188 . . . 66.9(5) no
O362 Ce64 O216 . . . 76.4(4) no
O362 Ce64 O344 . . . 74.6(5) no
O362 Ce64 O356 . . . 107.0(5) no
Ce46 Ce65 Ce56 . . . 89.89(3) no
Ce46 Ce65 Ce69 . . . 60.60(3) no
Ce68 Ce65 Ce46 . . . 60.45(3) no
Ce68 Ce65 Ce56 . . . 136.42(4) no
Ce68 Ce65 Ce69 . . . 77.61(3) no
Ce69 Ce65 Ce56 . . . 59.47(2) no
O41 Ce65 Ce46 . . . 33.8(3) no
O41 Ce65 Ce56 . . . 80.6(2) no
O41 Ce65 Ce68 . . . 87.9(2) no
O41 Ce65 Ce69 . . . 83.5(2) no
O41 Ce65 O49 . . . 70.4(3) no
O41 Ce65 O170 . . . 92.2(3) no
O41 Ce65 O233 . . . 72.8(3) no
O41 Ce65 O236 . . . 97.7(3) no
O41 Ce65 O251 . . 2_666 74.7(3) no
O41 Ce65 O425 . . . 147.4(5) no
O41 Ce65 O451 . . . 140.7(6) no
O49 Ce65 Ce46 . . . 97.7(2) no
O49 Ce65 Ce56 . . . 37.8(2) no
O49 Ce65 Ce68 . . . 157.9(2) no
O49 Ce65 Ce69 . . . 95.0(2) no
O49 Ce65 O251 . . 2_666 84.2(3) no
O49 Ce65 O425 . . . 128.2(5) no
O170 Ce65 Ce46 . . . 82.6(3) no
O170 Ce65 Ce56 . . . 33.0(3) no
O170 Ce65 Ce68 . . . 106.9(3) no
O170 Ce65 Ce69 . . . 30.3(3) no
O170 Ce65 O49 . . . 70.7(4) no
O170 Ce65 O233 . . . 71.6(4) no
O170 Ce65 O251 . . 2_666 154.5(4) no
O170 Ce65 O425 . . . 73.8(5) no
O170 Ce65 O451 . . . 102.5(6) no
O233 Ce65 Ce46 . . . 39.1(2) no
O233 Ce65 Ce56 . . . 97.5(2) no
O233 Ce65 Ce68 . . . 39.21(19) no
O233 Ce65 Ce69 . . . 41.4(2) no
O233 Ce65 O49 . . . 125.2(3) no
O233 Ce65 O251 . . 2_666 122.7(3) no
O233 Ce65 O425 . . . 74.9(5) no
O236 Ce65 Ce46 . . . 83.6(3) no
O236 Ce65 Ce56 . . . 170.3(3) no
O236 Ce65 Ce68 . . . 33.9(3) no
O236 Ce65 Ce69 . . . 110.9(3) no
O236 Ce65 O49 . . . 150.4(4) no
O236 Ce65 O170 . . . 138.3(5) no
O236 Ce65 O233 . . . 72.9(4) no
O236 Ce65 O251 . . 2_666 66.3(4) no
O236 Ce65 O425 . . . 76.3(5) no
O236 Ce65 O451 . . . 95.1(6) no
O251 Ce65 Ce46 2_666 . . 96.8(2) no
O251 Ce65 Ce56 2_666 . . 121.9(2) no
O251 Ce65 Ce68 2_666 . . 94.6(2) no
O251 Ce65 Ce69 2_666 . . 157.2(2) no
O425 Ce65 Ce46 . . . 114.0(4) no
O425 Ce65 Ce56 . . . 99.9(4) no
O425 Ce65 Ce68 . . . 69.2(4) no
O425 Ce65 Ce69 . . . 69.5(4) no
O425 Ce65 O251 . . 2_666 128.1(4) no
O451 Ce65 Ce46 . . . 173.4(5) no
O451 Ce65 Ce56 . . . 92.2(5) no
O451 Ce65 Ce68 . . . 121.0(5) no
O451 Ce65 Ce69 . . . 125.7(5) no
O451 Ce65 O49 . . . 80.3(5) no
O451 Ce65 O233 . . . 146.5(6) no
O451 Ce65 O251 . . 2_666 76.8(5) no
O451 Ce65 O425 . . . 71.8(6) no
Ce26 Ce66 Ce9 . . . 62.72(2) no
Ce26 Ce66 Ce31 . . . 91.43(3) no
Ce26 Ce66 Ce54 . . . 59.19(2) no
Ce31 Ce66 Ce9 . . . 58.52(2) no
Ce31 Ce66 Ce54 . . . 62.31(2) no
Ce54 Ce66 Ce9 . . . 91.00(2) no
O169 Ce66 Ce9 . . . 32.6(3) no
O169 Ce66 Ce26 . . . 33.7(3) no
O169 Ce66 Ce31 . . . 82.3(3) no
O169 Ce66 Ce54 . . . 83.1(3) no
O169 Ce66 O202 . . . 71.3(4) no
O169 Ce66 O218 . . . 84.3(4) no
O169 Ce66 O290 . . . 72.0(4) no
O169 Ce66 O318 . . . 144.6(4) no
O169 Ce66 O351 . . . 147.3(4) no
O169 Ce66 O363 . . . 86.6(4) no
O202 Ce66 Ce9 . . . 38.8(2) no
O202 Ce66 Ce26 . . . 98.2(2) no
O202 Ce66 Ce31 . . . 37.4(2) no
O202 Ce66 Ce54 . . . 96.9(2) no
O202 Ce66 O290 . . . 123.9(3) no
O218 Ce66 Ce9 . . . 75.6(3) no
O218 Ce66 Ce26 . . . 111.2(3) no
O218 Ce66 Ce31 . . . 110.8(3) no
O218 Ce66 Ce54 . . . 166.4(3) no
O218 Ce66 O202 . . . 74.1(4) no
O218 Ce66 O290 . . . 140.6(4) no
O218 Ce66 O351 . . . 116.5(4) no
O267 Ce66 Ce9 . . . 84.3(3) no
O267 Ce66 Ce26 . . . 84.6(3) no
O267 Ce66 Ce31 . . . 34.0(3) no
O267 Ce66 Ce54 . . . 33.2(3) no
O267 Ce66 O169 . . . 94.8(4) no
O267 Ce66 O202 . . . 71.5(3) no
O267 Ce66 O218 . . . 143.8(4) no
O267 Ce66 O290 . . . 71.0(3) no
O267 Ce66 O318 . . . 83.8(4) no
O267 Ce66 O351 . . . 82.7(4) no
O267 Ce66 O363 . . . 144.9(4) no
O290 Ce66 Ce9 . . . 97.6(2) no
O290 Ce66 Ce26 . . . 38.5(2) no
O290 Ce66 Ce31 . . . 97.0(2) no
O290 Ce66 Ce54 . . . 37.8(2) no
O318 Ce66 Ce9 . . . 112.6(2) no
O318 Ce66 Ce26 . . . 167.9(3) no
O318 Ce66 Ce31 . . . 77.0(3) no
O318 Ce66 Ce54 . . . 111.2(3) no
O318 Ce66 O202 . . . 74.8(3) no
O318 Ce66 O218 . . . 76.8(4) no
O318 Ce66 O290 . . . 138.5(3) no
O318 Ce66 O351 . . . 67.8(4) no
O351 Ce66 Ce9 . . . 166.9(3) no
O351 Ce66 Ce26 . . . 114.0(3) no
O351 Ce66 Ce31 . . . 110.1(3) no
O351 Ce66 Ce54 . . . 77.1(3) no
O351 Ce66 O202 . . . 136.4(4) no
O351 Ce66 O290 . . . 76.4(4) no
O363 Ce66 Ce9 . . . 112.5(3) no
O363 Ce66 Ce26 . . . 77.4(3) no
O363 Ce66 Ce31 . . . 168.4(3) no
O363 Ce66 Ce54 . . . 113.0(3) no
O363 Ce66 O202 . . . 140.4(4) no
O363 Ce66 O218 . . . 71.2(4) no
O363 Ce66 O290 . . . 76.3(4) no
O363 Ce66 O318 . . . 114.3(4) no
O363 Ce66 O351 . . . 77.7(5) no
Ce53 Ce67 Ce26 . . . 65.91(2) no
Ce53 Ce67 Ce54 . . . 95.91(3) no
Ce53 Ce67 Ce61 . . . 59.25(2) no
Ce54 Ce67 Ce26 . . . 59.25(2) no
Ce54 Ce67 Ce61 . . . 66.02(3) no
Ce61 Ce67 Ce26 . . . 93.40(3) no
O129 Ce67 Ce26 . . . 82.5(3) no
O129 Ce67 Ce53 . . . 83.5(3) no
O129 Ce67 Ce54 . . . 34.5(3) no
O129 Ce67 Ce61 . . . 33.9(3) no
O129 Ce67 O173 . . . 91.5(4) no
O129 Ce67 O257 . . . 71.3(4) no
O129 Ce67 O270 . . . 143.9(4) no
O129 Ce67 O290 . . . 72.2(4) no
O129 Ce67 O300 . . . 83.6(4) no
O129 Ce67 O350 . . . 148.7(4) no
O129 Ce67 O375 . . . 92.0(4) no
O173 Ce67 Ce26 . . . 34.0(3) no
O173 Ce67 Ce53 . . . 34.5(3) no
O173 Ce67 Ce54 . . . 83.8(3) no
O173 Ce67 Ce61 . . . 82.8(3) no
O173 Ce67 O257 . . . 72.2(3) no
O173 Ce67 O270 . . . 91.9(4) no
O173 Ce67 O290 . . . 71.6(3) no
O173 Ce67 O300 . . . 145.9(4) no
O173 Ce67 O350 . . . 82.7(4) no
O173 Ce67 O375 . . . 145.1(4) no
O257 Ce67 Ce26 . . . 100.25(19) no
O257 Ce67 Ce53 . . . 38.1(2) no
O257 Ce67 Ce54 . . . 100.8(2) no
O257 Ce67 Ce61 . . . 37.5(3) no
O257 Ce67 O270 . . . 75.6(4) no
O257 Ce67 O290 . . . 126.9(3) no
O257 Ce67 O300 . . . 74.3(3) no
O257 Ce67 O350 . . . 134.1(4) no
O270 Ce67 Ce26 . . . 117.7(3) no
O270 Ce67 Ce53 . . . 79.2(3) no
O270 Ce67 Ce54 . . . 175.1(3) no
O270 Ce67 Ce61 . . . 111.3(3) no
O270 Ce67 O290 . . . 142.2(4) no
O270 Ce67 O300 . . . 73.8(4) no
O270 Ce67 O350 . . . 67.2(4) no
O290 Ce67 Ce26 . . . 37.7(2) no
O290 Ce67 Ce53 . . . 100.9(2) no
O290 Ce67 Ce54 . . . 38.1(2) no
O290 Ce67 Ce61 . . . 100.4(2) no
O290 Ce67 O300 . . . 136.7(4) no
O290 Ce67 O350 . . . 76.9(3) no
O300 Ce67 Ce26 . . . 166.1(3) no
O300 Ce67 Ce53 . . . 111.5(3) no
O300 Ce67 Ce54 . . . 108.6(3) no
O300 Ce67 Ce61 . . . 74.4(3) no
O350 Ce67 Ce26 . . . 75.6(2) no
O350 Ce67 Ce53 . . . 106.8(3) no
O350 Ce67 Ce54 . . . 114.3(2) no
O350 Ce67 Ce61 . . . 165.4(3) no
O350 Ce67 O300 . . . 117.6(4) no
O375 Ce67 Ce26 . . . 112.4(3) no
O375 Ce67 Ce53 . . . 175.4(3) no
O375 Ce67 Ce54 . . . 79.7(3) no
O375 Ce67 Ce61 . . . 117.2(4) no
O375 Ce67 O257 . . . 141.1(4) no
O375 Ce67 O270 . . . 105.2(4) no
O375 Ce67 O290 . . . 76.5(4) no
O375 Ce67 O300 . . . 69.0(4) no
O375 Ce67 O350 . . . 76.5(5) no
Ce46 Ce68 Ce49 . . . 93.34(3) no
Ce47 Ce68 Ce46 . . . 65.44(2) no
Ce47 Ce68 Ce49 . . . 59.57(2) no
Ce65 Ce68 Ce46 . . . 59.88(2) no
Ce65 Ce68 Ce47 . . . 95.84(3) no
Ce65 Ce68 Ce49 . . . 65.45(3) no
O204 Ce68 Ce46 . . . 75.5(3) no
O204 Ce68 Ce47 . . . 105.8(3) no
O204 Ce68 Ce49 . . . 164.8(3) no
O204 Ce68 Ce65 . . . 115.4(2) no
O205 Ce68 Ce46 . . . 100.4(2) no
O205 Ce68 Ce47 . . . 38.5(2) no
O205 Ce68 Ce49 . . . 37.9(3) no
O205 Ce68 Ce65 . . . 100.8(3) no
O205 Ce68 O204 . . . 133.0(4) no
O205 Ce68 O385 . . . 76.9(4) no
O207 Ce68 Ce46 . . . 34.8(2) no
O207 Ce68 Ce47 . . . 33.2(2) no
O207 Ce68 Ce49 . . . 82.4(3) no
O207 Ce68 Ce65 . . . 84.8(3) no
O207 Ce68 O204 . . . 82.6(4) no
O207 Ce68 O205 . . . 71.5(3) no
O207 Ce68 O233 . . . 73.6(3) no
O207 Ce68 O236 . . . 92.5(4) no
O207 Ce68 O371 . . . 92.5(5) no
O207 Ce68 O385 . . . 148.1(4) no
O207 Ce68 O388 . . . 145.4(3) no
O233 Ce68 Ce46 . . . 38.9(2) no
O233 Ce68 Ce47 . . . 101.6(2) no
O233 Ce68 Ce49 . . . 100.5(3) no
O233 Ce68 Ce65 . . . 38.4(3) no
O233 Ce68 O204 . . . 77.5(4) no
O233 Ce68 O205 . . . 127.9(4) no
O233 Ce68 O371 . . . 142.5(4) no
O233 Ce68 O385 . . . 131.9(4) no
O233 Ce68 O388 . . . 77.6(3) no
O236 Ce68 Ce46 . . . 83.7(2) no
O236 Ce68 Ce47 . . . 84.0(3) no
O236 Ce68 Ce49 . . . 33.4(2) no
O236 Ce68 Ce65 . . . 34.8(2) no
O236 Ce68 O204 . . . 150.2(3) no
O236 Ce68 O205 . . . 71.3(4) no
O236 Ce68 O233 . . . 73.0(4) no
O236 Ce68 O371 . . . 143.6(4) no
O236 Ce68 O385 . . . 80.7(4) no
O236 Ce68 O388 . . . 97.0(4) no
O371 Ce68 Ce46 . . . 118.5(4) no
O371 Ce68 Ce47 . . . 80.7(3) no
O371 Ce68 Ce49 . . . 112.1(3) no
O371 Ce68 Ce65 . . . 176.5(3) no
O371 Ce68 O204 . . . 66.2(4) no
O371 Ce68 O205 . . . 76.3(4) no
O371 Ce68 O385 . . . 76.3(5) no
O385 Ce68 Ce46 . . . 164.2(4) no
O385 Ce68 Ce47 . . . 114.9(3) no
O385 Ce68 Ce49 . . . 74.8(3) no
O385 Ce68 Ce65 . . . 105.0(4) no
O385 Ce68 O204 . . . 117.9(4) no
O388 Ce68 Ce46 . . . 113.5(2) no
O388 Ce68 Ce47 . . . 178.4(3) no
O388 Ce68 Ce49 . . . 121.9(3) no
O388 Ce68 Ce65 . . . 84.4(2) no
O388 Ce68 O204 . . . 72.7(4) no
O388 Ce68 O205 . . . 142.9(3) no
O388 Ce68 O371 . . . 99.0(4) no
O388 Ce68 O385 . . . 66.4(4) no
Ce18 Ce69 Ce46 . . . 62.24(2) no
Ce18 Ce69 Ce56 . . . 59.04(2) no
Ce46 Ce69 Ce56 . . . 90.67(3) no
Ce65 Ce69 Ce18 . . . 91.69(3) no
Ce65 Ce69 Ce46 . . . 59.39(3) no
Ce65 Ce69 Ce56 . . . 62.01(3) no
O144 Ce69 Ce18 . . . 78.1(3) no
O144 Ce69 Ce46 . . . 114.1(4) no
O144 Ce69 Ce56 . . . 112.0(3) no
O144 Ce69 Ce65 . . . 169.7(3) no
O144 Ce69 O146 . . . 75.7(4) no
O144 Ce69 O233 . . . 141.8(5) no
O144 Ce69 O234 . . . 70.0(4) no
O144 Ce69 O311 . . . 75.7(5) no
O146 Ce69 Ce18 . . . 38.5(2) no
O146 Ce69 Ce46 . . . 97.1(2) no
O146 Ce69 Ce56 . . . 37.6(2) no
O146 Ce69 Ce65 . . . 96.7(2) no
O164 Ce69 Ce18 . . . 33.0(2) no
O164 Ce69 Ce46 . . . 33.2(2) no
O164 Ce69 Ce56 . . . 83.0(3) no
O164 Ce69 Ce65 . . . 83.8(3) no
O164 Ce69 O144 . . . 87.1(4) no
O164 Ce69 O146 . . . 71.4(4) no
O164 Ce69 O233 . . . 72.1(3) no
O164 Ce69 O234 . . . 80.8(4) no
O164 Ce69 O311 . . . 144.9(4) no
O164 Ce69 O369 . . . 145.8(4) no
O170 Ce69 Ce18 . . . 83.9(3) no
O170 Ce69 Ce46 . . . 83.7(3) no
O170 Ce69 Ce56 . . . 33.1(3) no
O170 Ce69 Ce65 . . . 33.2(3) no
O170 Ce69 O144 . . . 143.7(4) no
O170 Ce69 O146 . . . 70.7(4) no
O170 Ce69 O164 . . . 94.6(4) no
O170 Ce69 O233 . . . 71.5(4) no
O170 Ce69 O234 . . . 146.1(4) no
O170 Ce69 O311 . . . 82.6(5) no
O170 Ce69 O369 . . . 91.1(5) no
O233 Ce69 Ce18 . . . 98.1(2) no
O233 Ce69 Ce46 . . . 39.0(2) no
O233 Ce69 Ce56 . . . 97.2(3) no
O233 Ce69 Ce65 . . . 38.3(3) no
O233 Ce69 O146 . . . 123.9(3) no
O234 Ce69 Ce18 . . . 106.9(3) no
O234 Ce69 Ce46 . . . 74.2(3) no
O234 Ce69 Ce56 . . . 163.5(3) no
O234 Ce69 Ce65 . . . 113.2(2) no
O234 Ce69 O146 . . . 136.4(4) no
O234 Ce69 O233 . . . 75.2(4) no
O234 Ce69 O311 . . . 119.8(5) no
O311 Ce69 Ce18 . . . 112.4(3) no
O311 Ce69 Ce46 . . . 165.8(4) no
O311 Ce69 Ce56 . . . 75.8(4) no
O311 Ce69 Ce65 . . . 109.3(4) no
O311 Ce69 O146 . . . 74.8(4) no
O311 Ce69 O233 . . . 137.4(4) no
O369 Ce69 Ce18 . . . 174.4(3) no
O369 Ce69 Ce46 . . . 114.9(3) no
O369 Ce69 Ce56 . . . 117.2(4) no
O369 Ce69 Ce65 . . . 82.7(3) no
O369 Ce69 O144 . . . 107.5(4) no
O369 Ce69 O146 . . . 141.4(4) no
O369 Ce69 O233 . . . 77.9(3) no
O369 Ce69 O234 . . . 76.0(5) no
O369 Ce69 O311 . . . 69.2(4) no
Ce53 Ce70 Ce52 . . . 61.71(2) no
Ce53 Ce70 Ce59 . . . 90.77(3) no
Ce53 Ce70 Ce61 . . . 58.51(2) no
Ce59 Ce70 Ce52 . . . 58.83(2) no
Ce59 Ce70 Ce61 . . . 62.88(3) no
Ce61 Ce70 Ce52 . . . 90.95(3) no
O28 Ce70 Ce52 . . . 33.2(3) no
O28 Ce70 Ce53 . . . 32.4(3) no
O28 Ce70 Ce59 . . . 83.1(3) no
O28 Ce70 Ce61 . . . 82.5(3) no
O28 Ce70 O103 . . . 69.8(3) no
O28 Ce70 O232 . . . 85.0(4) no
O28 Ce70 O257 . . . 70.0(3) no
O28 Ce70 O263 . . . 143.5(4) no
O28 Ce70 O301 . . . 86.0(4) no
O28 Ce70 O313 . . . 146.0(4) no
O103 Ce70 Ce52 . . . 36.6(2) no
O103 Ce70 Ce53 . . . 95.5(2) no
O103 Ce70 Ce59 . . . 38.9(2) no
O103 Ce70 Ce61 . . . 97.8(2) no
O103 Ce70 O257 . . . 122.5(3) no
O232 Ce70 Ce52 . . . 77.1(3) no
O232 Ce70 Ce53 . . . 110.8(3) no
O232 Ce70 Ce59 . . . 113.1(3) no
O232 Ce70 Ce61 . . . 167.2(3) no
O232 Ce70 O103 . . . 75.3(4) no
O232 Ce70 O257 . . . 138.1(4) no
O232 Ce70 O263 . . . 116.6(4) no
O232 Ce70 O301 . . . 69.6(4) no
O232 Ce70 O313 . . . 77.4(5) no
O257 Ce70 Ce52 . . . 96.2(2) no
O257 Ce70 Ce53 . . . 37.6(2) no
O257 Ce70 Ce59 . . . 97.1(2) no
O257 Ce70 Ce61 . . . 37.7(2) no
O263 Ce70 Ce52 . . . 166.2(3) no
O263 Ce70 Ce53 . . . 111.7(3) no
O263 Ce70 Ce59 . . . 111.1(4) no
O263 Ce70 Ce61 . . . 75.5(3) no
O263 Ce70 O103 . . . 141.3(4) no
O263 Ce70 O257 . . . 74.8(4) no
O264 Ce70 Ce52 . . . 83.5(3) no
O264 Ce70 Ce53 . . . 83.3(3) no
O264 Ce70 Ce59 . . . 33.5(3) no
O264 Ce70 Ce61 . . . 33.7(3) no
O264 Ce70 O28 . . . 94.0(4) no
O264 Ce70 O103 . . . 72.4(4) no
O264 Ce70 O232 . . . 145.8(4) no
O264 Ce70 O257 . . . 71.3(4) no
O264 Ce70 O263 . . . 83.6(4) no
O264 Ce70 O301 . . . 144.5(4) no
O264 Ce70 O313 . . . 85.1(5) no
O301 Ce70 Ce52 . . . 112.5(3) no
O301 Ce70 Ce53 . . . 77.9(2) no
O301 Ce70 Ce59 . . . 168.4(3) no
O301 Ce70 Ce61 . . . 111.9(3) no
O301 Ce70 O103 . . . 138.8(4) no
O301 Ce70 O257 . . . 75.5(4) no
O301 Ce70 O263 . . . 75.9(5) no
O313 Ce70 Ce52 . . . 113.5(3) no
O313 Ce70 Ce53 . . . 167.9(4) no
O313 Ce70 Ce59 . . . 77.6(3) no
O313 Ce70 Ce61 . . . 112.1(4) no
O313 Ce70 O103 . . . 77.6(3) no
O313 Ce70 O257 . . . 139.7(4) no
O313 Ce70 O263 . . . 70.4(4) no
O313 Ce70 O301 . . . 113.8(4) no
O148 Ce72 O331 . . . 69.5(3) no
O148 Ce72 O444 . . . 93.2(7) no
O148 Ce72 O454 . . . 136.0(7) no
O253 Ce72 O148 . . . 67.7(4) no
O253 Ce72 O331 . . . 129.0(5) no
O253 Ce72 O424 . . . 71.3(6) no
O253 Ce72 O428 . . . 110.2(6) no
O253 Ce72 O444 . . . 66.0(8) no
O253 Ce72 O446 . . . 125.8(6) no
O253 Ce72 O454 . . . 136.9(8) no
O331 Ce72 O444 . . . 142.7(8) no
O331 Ce72 O454 . . . 93.6(7) no
O424 Ce72 O148 . . . 137.6(6) no
O424 Ce72 O331 . . . 135.6(6) no
O424 Ce72 O428 . . . 139.8(7) no
O424 Ce72 O444 . . . 79.4(9) no
O424 Ce72 O446 . . . 64.9(7) no
O424 Ce72 O454 . . . 83.0(8) no
O428 Ce72 O148 . . . 67.5(5) no
O428 Ce72 O331 . . . 76.4(6) no
O428 Ce72 O444 . . . 66.4(9) no
O428 Ce72 O446 . . . 123.7(7) no
O428 Ce72 O454 . . . 69.1(7) no
O446 Ce72 O148 . . . 136.3(6) no
O446 Ce72 O331 . . . 73.0(6) no
O446 Ce72 O444 . . . 130.4(9) no
O446 Ce72 O454 . . . 66.9(8) no
O454 Ce72 O444 . . . 75.9(9) no
O148 Ce73 O87 . . . 50.6(3) no
O148 Ce73 O424 . . . 127.9(5) no
O148 Ce73 O440 . . . 111.1(7) no
O148 Ce73 O441 . . . 65.5(7) no
O148 Ce73 O452 . . . 112.0(9) no
O253 Ce73 O87 . . . 80.5(4) no
O253 Ce73 O148 . . . 67.9(4) no
O253 Ce73 O424 . . . 65.8(6) no
O253 Ce73 O440 . . . 66.5(8) no
O253 Ce73 O441 . . . 75.8(8) no
O253 Ce73 O452 . . . 121.4(11) no
O331 Ce73 O87 . . . 86.4(4) no
O331 Ce73 O148 . . . 75.2(4) no
O331 Ce73 O253 . . . 140.8(4) no
O331 Ce73 O424 . . . 136.1(6) no
O331 Ce73 O440 . . . 143.1(8) no
O331 Ce73 O441 . . . 77.4(8) no
O331 Ce73 O452 . . . 61.4(10) no
O331 Ce73 O453 . . . 86.4(5) no
O424 Ce73 O87 . . . 137.6(5) no
O440 Ce73 O87 . . . 73.2(7) no
O440 Ce73 O424 . . . 70.1(8) no
O441 Ce73 O87 . . . 116.1(7) no
O441 Ce73 O424 . . . 80.9(9) no
O441 Ce73 O440 . . . 139.2(10) no
O441 Ce73 O452 . . . 56.1(11) no
O452 Ce73 O87 . . . 147.6(10) no
O452 Ce73 O424 . . . 74.7(10) no
O452 Ce73 O440 . . . 135.4(11) no
O453 Ce73 O87 . . . 110.2(4) no
O453 Ce73 O148 . . . 153.4(5) no
O453 Ce73 O253 . . . 132.8(5) no
O453 Ce73 O424 . . . 78.6(6) no
O453 Ce73 O440 . . . 73.0(8) no
O453 Ce73 O441 . . . 129.3(8) no
O453 Ce73 O452 . . . 73.8(10) no
O19 Ce74 S49 2_666 . . 133.1(2) no
O19 Ce74 O199 2_666 . . 74.1(4) no
O19 Ce74 O307 2_666 . . 121.3(3) no
O19 Ce74 O341 2_666 . . 71.3(4) no
O19 Ce74 O374 2_666 . . 68.2(4) no
O19 Ce74 O394 2_666 . . 124.4(4) no
O19 Ce74 O414 2_666 . . 70.8(4) no
O113 Ce74 S49 . . . 80.3(3) no
O113 Ce74 O19 . . 2_666 134.5(3) no
O113 Ce74 O199 . . . 136.4(4) no
O113 Ce74 O307 . . . 71.9(3) no
O113 Ce74 O341 . . . 73.9(4) no
O113 Ce74 O374 . . . 141.2(4) no
O113 Ce74 O394 . . . 69.3(4) no
O113 Ce74 O414 . . . 74.1(4) no
O199 Ce74 S49 . . . 102.6(3) no
O199 Ce74 O307 . . . 127.1(4) no
O199 Ce74 O374 . . . 72.8(5) no
O199 Ce74 O394 . . . 67.2(4) no
O199 Ce74 O414 . . . 93.3(5) no
O307 Ce74 S49 . . . 27.6(3) no
O310 Ce74 S49 . . . 28.9(3) no
O310 Ce74 O19 . . 2_666 140.7(4) no
O310 Ce74 O113 . . . 84.2(4) no
O310 Ce74 O199 . . . 80.2(4) no
O310 Ce74 O307 . . . 56.0(4) no
O310 Ce74 O341 . . . 126.9(4) no
O310 Ce74 O374 . . . 76.1(5) no
O310 Ce74 O394 . . . 68.5(6) no
O310 Ce74 O414 . . . 140.8(5) no
O341 Ce74 S49 . . . 98.7(3) no
O341 Ce74 O199 . . . 145.3(4) no
O341 Ce74 O307 . . . 71.2(4) no
O341 Ce74 O374 . . . 91.5(5) no
O341 Ce74 O394 . . . 138.2(5) no
O341 Ce74 O414 . . . 78.2(5) no
O374 Ce74 S49 . . . 66.3(3) no
O374 Ce74 O307 . . . 69.3(4) no
O394 Ce74 S49 . . . 94.0(4) no
O394 Ce74 O307 . . . 113.7(5) no
O394 Ce74 O374 . . . 129.8(5) no
O394 Ce74 O414 . . . 73.3(6) no
O414 Ce74 S49 . . . 154.1(3) no
O414 Ce74 O307 . . . 139.2(5) no
O414 Ce74 O374 . . . 138.9(4) no
O128 Ce75 S64 . . . 79.0(2) no
O128 Ce75 O265 . . 2_667 135.1(3) no
O128 Ce75 O330 . . . 84.2(4) no
O128 Ce75 O391 . . . 72.0(4) no
O128 Ce75 O407 . . . 69.6(3) no
O128 Ce75 O415 . . . 137.5(4) no
O128 Ce75 O418 . . . 73.8(4) no
O128 Ce75 O419 . . . 139.8(3) no
O128 Ce75 O422 . . . 76.1(5) no
O265 Ce75 S64 2_667 . . 130.7(3) no
O265 Ce75 O330 2_667 . . 138.3(4) no
O265 Ce75 O391 2_667 . . 116.3(4) no
O265 Ce75 O407 2_667 . . 125.7(4) no
O265 Ce75 O419 2_667 . . 67.5(4) no
O265 Ce75 O422 2_667 . . 73.5(5) no
O330 Ce75 S64 . . . 26.0(3) no
O330 Ce75 O391 . . . 54.6(4) no
O330 Ce75 O407 . . . 74.3(4) no
O330 Ce75 O419 . . . 72.4(4) no
O330 Ce75 O422 . . . 142.2(5) no
O391 Ce75 S64 . . . 28.7(3) no
O407 Ce75 S64 . . . 96.3(3) no
O407 Ce75 O391 . . . 117.7(4) no
O407 Ce75 O419 . . . 130.3(4) no
O415 Ce75 S64 . . . 102.0(4) no
O415 Ce75 O265 . . 2_667 75.9(4) no
O415 Ce75 O330 . . . 81.1(4) no
O415 Ce75 O391 . . . 126.3(5) no
O415 Ce75 O407 . . . 68.1(4) no
O415 Ce75 O418 . . . 145.1(4) no
O415 Ce75 O419 . . . 71.2(5) no
O415 Ce75 O422 . . . 92.0(7) no
O418 Ce75 S64 . . . 99.1(5) no
O418 Ce75 O265 . . 2_667 69.2(4) no
O418 Ce75 O330 . . . 124.7(6) no
O418 Ce75 O391 . . . 70.3(6) no
O418 Ce75 O407 . . . 136.5(6) no
O418 Ce75 O419 . . . 93.0(6) no
O418 Ce75 O422 . . . 80.4(8) no
O419 Ce75 S64 . . . 65.6(3) no
O419 Ce75 O391 . . . 67.8(4) no
O422 Ce75 S64 . . . 154.2(4) no
O422 Ce75 O391 . . . 141.4(6) no
O422 Ce75 O407 . . . 68.7(6) no
O422 Ce75 O419 . . . 140.1(5) no
O380 Ce76 O427 . . . 73.0(7) no
O380 Ce76 O430 . . . 127.8(6) no
O380 Ce76 O431 . . . 65.0(7) no
O380 Ce76 O433 . . . 73.3(6) no
O427 Ce76 O433 . . . 67.7(8) no
O429 Ce76 O380 . . . 88.1(10) no
O429 Ce76 O427 . . . 134.2(11) no
O429 Ce76 O430 . . . 141.2(11) no
O429 Ce76 O431 . . . 127.4(10) no
O429 Ce76 O433 . . . 67.(1) no
O429 Ce76 O434 . . . 89.2(10) no
O430 Ce76 O427 . . . 77.5(8) no
O430 Ce76 O433 . . . 131.2(7) no
O431 Ce76 O427 . . . 82.1(8) no
O431 Ce76 O430 . . . 69.0(8) no
O431 Ce76 O433 . . . 134.1(8) no
O434 Ce76 O380 . . . 139.2(7) no
O434 Ce76 O427 . . . 80.1(8) no
O434 Ce76 O430 . . . 73.1(8) no
O434 Ce76 O431 . . . 140.8(8) no
O434 Ce76 O433 . . . 68.2(8) no
O447 Ce76 O380 . . . 144.5(13) no
O447 Ce76 O427 . . . 142.1(14) no
O447 Ce76 O429 . . . 69.1(16) no
O447 Ce76 O430 . . . 72.3(14) no
O447 Ce76 O431 . . . 107.2(14) no
O447 Ce76 O433 . . . 118.0(14) no
O447 Ce76 O434 . . . 69.7(14) no
S35 Ce77 S3 2_667 . . 112.42(10) no
O47 Ce77 S3 2_667 . . 73.9(3) no
O47 Ce77 S35 2_667 . 2_667 80.1(3) no
O47 Ce77 O52 2_667 . . 73.4(3) no
O47 Ce77 O71 2_667 . 2_667 73.8(4) no
O47 Ce77 O99 2_667 . . 140.3(4) no
O47 Ce77 O111 2_667 . . 83.5(3) no
O47 Ce77 O250 2_667 . . 137.5(4) no
O47 Ce77 O252 2_667 . . 137.3(4) no
O47 Ce77 O297 2_667 . 2_667 79.9(4) no
O47 Ce77 O396 2_667 . . 68.8(4) no
O47 Ce77 O443 2_667 . . 85.5(4) no
O52 Ce77 S3 . . . 25.4(2) no
O52 Ce77 S35 . . 2_667 135.2(2) no
O52 Ce77 O111 . . . 50.9(3) no
O52 Ce77 O396 . . . 113.5(4) no
O71 Ce77 S3 2_667 . . 85.2(3) no
O71 Ce77 S35 2_667 . 2_667 27.4(3) no
O71 Ce77 O52 2_667 . . 109.0(3) no
O71 Ce77 O111 2_667 . . 64.3(3) no
O71 Ce77 O297 2_667 . 2_667 53.7(4) no
O71 Ce77 O396 2_667 . . 110.0(4) no
O99 Ce77 S3 . . . 75.4(3) no
O99 Ce77 S35 . . 2_667 135.6(3) no
O99 Ce77 O52 . . . 68.0(3) no
O99 Ce77 O71 . . 2_667 127.7(3) no
O99 Ce77 O111 . . . 79.7(3) no
O99 Ce77 O250 . . . 70.0(3) no
O99 Ce77 O252 . . . 71.3(4) no
O99 Ce77 O297 . . 2_667 139.6(4) no
O99 Ce77 O396 . . . 118.8(4) no
O99 Ce77 O443 . . . 70.2(4) no
O111 Ce77 S3 . . . 25.9(2) no
O111 Ce77 S35 . . 2_667 91.3(2) no
O250 Ce77 S3 . . . 95.8(3) no
O250 Ce77 S35 . . 2_667 65.8(3) no
O250 Ce77 O52 . . . 113.8(4) no
O250 Ce77 O71 . . 2_667 64.2(4) no
O250 Ce77 O111 . . . 73.2(4) no
O250 Ce77 O297 . . 2_667 80.5(4) no
O250 Ce77 O396 . . . 131.2(5) no
O252 Ce77 S3 . . . 146.5(3) no
O252 Ce77 S35 . . 2_667 89.3(3) no
O252 Ce77 O52 . . . 134.1(3) no
O252 Ce77 O71 . . 2_667 112.2(4) no
O252 Ce77 O111 . . . 138.4(3) no
O252 Ce77 O250 . . . 69.3(4) no
O252 Ce77 O297 . . 2_667 72.8(4) no
O252 Ce77 O396 . . . 69.7(4) no
O297 Ce77 S3 2_667 . . 136.2(3) no
O297 Ce77 S35 2_667 . 2_667 27.1(3) no
O297 Ce77 O52 2_667 . . 151.9(3) no
O297 Ce77 O111 2_667 . . 118.0(3) no
O297 Ce77 O396 2_667 . . 62.9(4) no
O396 Ce77 S3 . . . 132.9(4) no
O396 Ce77 S35 . . 2_667 88.5(3) no
O396 Ce77 O111 . . . 151.9(4) no
O443 Ce77 S3 . . . 90.5(3) no
O443 Ce77 S35 . . 2_667 147.9(3) no
O443 Ce77 O52 . . . 65.1(4) no
O443 Ce77 O71 . . 2_667 159.3(4) no
O443 Ce77 O111 . . . 115.6(4) no
O443 Ce77 O250 . . . 136.5(4) no
O443 Ce77 O252 . . . 82.0(4) no
O443 Ce77 O297 . . 2_667 122.0(4) no
O443 Ce77 O396 . . . 59.5(4) no
O426 Co1 O432 . . . 175.2(7) no
O426 Co1 O435 . . . 88.3(11) no
O426 Co1 O437 . . . 89.6(11) no
O426 Co1 O438 . . . 93.1(11) no
O426 Co1 O442 . . . 83.4(10) no
O432 Co1 O435 . . . 96.0(11) no
O432 Co1 O437 . . . 90.7(11) no
O432 Co1 O438 . . . 85.7(11) no
O432 Co1 O442 . . . 91.9(10) no
O435 Co1 O437 . . . 113.0(14) no
O435 Co1 O438 . . . 79.2(14) no
O437 Co1 O438 . . . 167.6(14) no
O442 Co1 O435 . . . 166.8(14) no
O442 Co1 O437 . . . 77.3(13) no
O442 Co1 O438 . . . 91.0(14) no
O68 S1 O107 . . . 111.5(7) no
O68 S1 O168 . . . 109.7(6) no
O68 S1 O192 . . . 110.2(7) no
O107 S1 O168 . . . 107.2(6) no
O192 S1 O107 . . . 109.0(7) no
O192 S1 O168 . . . 109.2(6) no
O16 S2 O11 . . . 110.2(5) no
O16 S2 O55 . . . 111.6(6) no
O19 S2 O11 . . . 108.9(6) no
O19 S2 O16 . . . 110.5(6) no
O19 S2 O55 . . . 108.8(6) no
O55 S2 O11 . . . 106.8(5) no
O1 S3 Ce77 . . . 118.3(5) no
O1 S3 O6 . . . 109.4(6) no
O1 S3 O52 . . . 110.5(6) no
O6 S3 Ce77 . . . 132.1(4) no
O6 S3 O52 . . . 110.4(6) no
O52 S3 Ce77 . . . 50.1(5) no
O111 S3 Ce77 . . . 54.8(4) no
O111 S3 O1 . . . 113.7(6) no
O111 S3 O6 . . . 109.0(6) no
O111 S3 O52 . . . 103.7(6) no
O32 S4 O57 . . . 109.7(6) no
O32 S4 O113 . . . 111.1(6) no
O32 S4 O166 . . . 108.2(6) no
O113 S4 O57 . . . 109.2(6) no
O166 S4 O57 . . . 110.7(6) no
O166 S4 O113 . . . 107.9(6) no
O112 S5 O156 . . . 109.9(5) no
O119 S5 O112 . . . 107.4(6) no
O119 S5 O128 . . . 109.9(6) no
O119 S5 O156 . . . 107.7(6) no
O128 S5 O112 . . . 110.7(6) no
O128 S5 O156 . . . 111.0(6) no
O159 S6 O73 . . . 109.7(6) no
O253 S6 O73 . . . 109.4(6) no
O253 S6 O159 . . . 109.1(8) no
O302 S6 O73 . . . 111.3(6) no
O302 S6 O159 . . . 110.2(7) no
O302 S6 O253 . . . 107.0(9) no
O99 S7 O81 . . . 110.4(6) no
O99 S7 O154 . . . 107.8(6) no
O99 S7 O206 . . . 109.6(6) no
O154 S7 O81 . . . 109.4(5) no
O154 S7 O206 . . . 109.5(6) no
O206 S7 O81 . . . 110.2(6) no
O10 S8 O88 . . . 110.4(7) no
O46 S8 O10 . . . 110.7(6) no
O46 S8 O88 . . . 109.0(6) no
O91 S8 O10 . . . 108.9(7) no
O91 S8 O46 . . . 108.3(7) no
O91 S8 O88 . . . 109.5(6) no
O75 S9 O5 . . . 107.2(6) no
O75 S9 O148 . . . 110.9(7) no
O87 S9 O5 . . . 109.7(6) no
O87 S9 O75 . . . 110.8(8) no
O87 S9 O148 . . . 106.3(7) no
O148 S9 O5 . . . 112.0(6) no
O124 S10 O165 . . . 108.5(6) no
O124 S10 O187 . . . 110.7(6) no
O165 S10 O187 . . . 107.4(6) no
O186 S10 O124 . . . 110.1(6) no
O186 S10 O165 . . . 109.3(6) no
O186 S10 O187 . . . 110.8(6) no
O171 S11 O208 . . . 110.3(6) no
O171 S11 O337 . . . 109.0(8) no
O223 S11 O171 . . . 108.6(8) no
O223 S11 O208 . . . 109.9(7) no
O223 S11 O337 . . . 109.0(9) no
O337 S11 O208 . . . 110.0(6) no
O134 S12 O37 . . . 110.7(6) no
O134 S12 O254 . . . 106.8(6) no
O134 S12 O256 . . . 107.9(6) no
O254 S12 O37 . . . 108.9(6) no
O256 S12 O37 . . . 112.1(6) no
O256 S12 O254 . . . 110.3(6) no
O77 S13 O94 . . . 110.4(6) no
O77 S13 O174 . . . 111.5(7) no
O174 S13 O94 . . . 107.3(6) no
O261 S13 O77 . . . 111.1(7) no
O261 S13 O94 . . . 107.5(7) no
O261 S13 O174 . . . 108.8(7) no
O118 S14 O130 . . . 111.1(6) no
O118 S14 O332 . . . 107.7(7) no
O191 S14 O118 . . . 108.5(7) no
O191 S14 O130 . . . 108.9(6) no
O191 S14 O332 . . . 110.5(8) no
O332 S14 O130 . . . 110.1(6) no
O110 S15 O106 . . . 110.7(6) no
O110 S15 O131 . . . 109.0(6) no
O110 S15 O359 . . . 108.5(8) no
O131 S15 O106 . . . 111.0(6) no
O359 S15 O106 . . . 108.8(7) no
O359 S15 O131 . . . 108.7(8) no
O47 S16 O51 . . . 108.8(6) no
O47 S16 O95 . . . 108.3(6) no
O47 S16 O181 . . . 109.2(6) no
O51 S16 O95 . . . 110.7(6) no
O51 S16 O181 . . . 110.3(6) no
O95 S16 O181 . . . 109.5(5) no
O150 S17 O209 . . . 109.6(6) no
O150 S17 O339 . . . 112.1(7) no
O238 S17 O150 . . . 109.4(6) no
O238 S17 O209 . . . 107.0(6) no
O238 S17 O339 . . . 106.3(7) no
O339 S17 O209 . . . 112.2(7) no
O20 S18 O34 . . . 109.9(6) no
O20 S18 O160 . . . 107.7(6) no
O125 S18 O20 . . . 110.3(6) no
O125 S18 O34 . . . 110.0(6) no
O125 S18 O160 . . . 109.4(6) no
O160 S18 O34 . . . 109.4(5) no
O90 S19 O153 . . . 107.5(6) no
O90 S19 O176 . . . 109.1(7) no
O90 S19 O367 . . . 110.4(7) no
O153 S19 O176 . . . 109.5(6) no
O153 S19 O367 . . . 110.7(7) no
O367 S19 O176 . . . 109.6(7) no
O249 S20 O228 . . . 109.3(6) no
O326 S20 O228 . . . 110.6(7) no
O326 S20 O249 . . . 106.6(7) no
O326 S20 O338 . . . 110.6(8) no
O338 S20 O228 . . . 110.1(6) no
O338 S20 O249 . . . 109.5(8) no
O324 S21 O189 . . . 108.1(6) no
O324 S21 O354 . . . 109.6(7) no
O348 S21 O189 . . . 108.8(6) no
O348 S21 O324 . . . 109.1(7) no
O348 S21 O354 . . . 111.6(8) no
O354 S21 O189 . . . 109.6(7) no
O161 S22 O167 . . . 110.0(7) no
O201 S22 O161 . . . 110.0(8) no
O201 S22 O167 . . . 109.2(7) no
O259 S22 O161 . . . 109.5(7) no
O259 S22 O167 . . . 110.6(6) no
O259 S22 O201 . . . 107.4(7) no
O197 S23 O314 . . . 110.9(6) no
O217 S23 O197 . . . 109.4(7) no
O217 S23 O218 . . . 109.0(8) no
O217 S23 O314 . . . 108.0(7) no
O218 S23 O197 . . . 110.2(7) no
O218 S23 O314 . . . 109.3(7) no
O59 S24 O157 . . . 112.2(7) no
O59 S24 O244 . . . 109.2(7) no
O59 S24 O287 . . . 107.3(7) no
O244 S24 O157 . . . 108.8(7) no
O287 S24 O157 . . . 109.0(7) no
O287 S24 O244 . . . 110.4(7) no
O152 S25 O175 . . . 110.6(6) no
O152 S25 O380 . . . 109.0(8) no
O357 S25 O152 . . . 107.8(8) no
O357 S25 O175 . . . 109.5(7) no
O357 S25 O380 . . . 108.8(9) no
O380 S25 O175 . . . 111.1(7) no
O215 S26 O198 . . . 108.6(6) no
O248 S26 O198 . . . 108.6(7) no
O248 S26 O215 . . . 107.7(7) no
O248 S26 O345 . . . 109.7(7) no
O345 S26 O198 . . . 110.9(8) no
O345 S26 O215 . . . 111.3(9) no
O132 S27 O235 . . . 110.0(7) no
O179 S27 O132 . . . 111.0(6) no
O179 S27 O235 . . . 107.5(7) no
O333 S27 O132 . . . 107.9(7) no
O333 S27 O179 . . . 111.8(7) no
O333 S27 O235 . . . 108.6(7) no
O97 S28 O79 . . . 109.1(6) no
O97 S28 O127 . . . 107.5(6) no
O127 S28 O79 . . . 110.6(7) no
O266 S28 O79 . . . 106.8(7) no
O266 S28 O97 . . . 111.5(7) no
O266 S28 O127 . . . 111.3(6) no
O70 S29 O239 . . . 107.1(6) no
O70 S29 O276 . . . 110.2(6) no
O212 S29 O70 . . . 109.6(6) no
O212 S29 O239 . . . 112.6(7) no
O212 S29 O276 . . . 109.5(6) no
O239 S29 O276 . . . 107.8(6) no
O115 S30 O251 . . . 108.8(6) no
O115 S30 O273 . . . 111.3(7) no
O115 S30 O331 . . . 110.3(7) no
O251 S30 O273 . . . 108.2(7) no
O251 S30 O331 . . . 109.1(7) no
O331 S30 O273 . . . 109.1(8) no
O278 S31 O245 . . . 108.1(7) no
O319 S31 O245 . . . 110.2(7) no
O319 S31 O278 . . . 109.3(7) no
O319 S31 O364 . . . 110.5(8) no
O364 S31 O245 . . . 108.9(7) no
O364 S31 O278 . . . 109.9(8) no
O258 S32 O285 . . . 109.8(6) no
O258 S32 O316 . . . 108.7(6) no
O316 S32 O285 . . . 107.6(7) no
O323 S32 O258 . . . 112.3(7) no
O323 S32 O285 . . . 106.3(8) no
O323 S32 O316 . . . 111.9(8) no
O149 S33 O282 . . . 108.7(6) no
O149 S33 O292 . . . 110.8(6) no
O149 S33 O334 . . . 109.1(7) no
O282 S33 O292 . . . 109.5(6) no
O282 S33 O334 . . . 109.4(6) no
O334 S33 O292 . . . 109.3(7) no
O317 S34 O226 . . . 110.4(6) no
O317 S34 O320 . . . 108.9(7) no
O317 S34 O329 . . . 109.8(7) no
O320 S34 O226 . . . 109.7(7) no
O329 S34 O226 . . . 109.2(7) no
O329 S34 O320 . . . 108.8(8) no
O71 S35 Ce77 . . 2_667 52.3(4) no
O140 S35 Ce77 . . 2_667 135.8(6) no
O140 S35 O71 . . . 110.2(7) no
O140 S35 O242 . . . 107.3(7) no
O140 S35 O297 . . . 110.3(7) no
O242 S35 Ce77 . . 2_667 116.8(5) no
O242 S35 O71 . . . 110.1(7) no
O242 S35 O297 . . . 116.0(8) no
O297 S35 Ce77 . . 2_667 52.6(5) no
O297 S35 O71 . . . 102.9(7) no
O120 S36 O225 . . . 109.6(7) no
O185 S36 O120 . . . 108.0(6) no
O185 S36 O225 . . . 107.7(6) no
O395 S36 O120 . . . 111.6(7) no
O395 S36 O185 . . . 110.9(6) no
O395 S36 O225 . . . 109.0(6) no
O39 S37 O240 . . . 109.9(6) no
O39 S37 O268 . . . 108.7(7) no
O39 S37 O294 . . . 108.2(7) no
O240 S37 O294 . . . 108.4(6) no
O268 S37 O240 . . . 111.8(7) no
O268 S37 O294 . . . 109.7(6) no
O138 S38 O260 . . . 108.7(6) no
O265 S38 O138 . . . 106.7(6) no
O265 S38 O260 . . . 109.4(7) no
O265 S38 O271 . . . 108.8(7) no
O271 S38 O138 . . . 111.9(6) no
O271 S38 O260 . . . 111.2(6) no
O142 S39 O155 . . . 110.0(7) no
O142 S39 O389 . . . 106.1(7) no
O213 S39 O142 . . . 111.9(6) no
O213 S39 O155 . . . 109.0(6) no
O213 S39 O389 . . . 110.5(8) no
O389 S39 O155 . . . 109.4(6) no
O58 S40 O147 . . . 107.2(7) no
O58 S40 O163 . . . 110.2(7) no
O163 S40 O147 . . . 109.5(6) no
O325 S40 O58 . . . 109.8(7) no
O325 S40 O147 . . . 110.6(7) no
O325 S40 O163 . . . 109.5(6) no
O109 S41 O303 . . . 110.7(7) no
O180 S41 O109 . . . 109.1(7) no
O180 S41 O303 . . . 109.2(7) no
O346 S41 O109 . . . 107.7(8) no
O346 S41 O180 . . . 109.8(7) no
O346 S41 O303 . . . 110.3(7) no
O117 S42 O158 . . . 109.8(7) no
O141 S42 O117 . . . 109.7(7) no
O141 S42 O158 . . . 107.8(7) no
O281 S42 O117 . . . 108.6(7) no
O281 S42 O141 . . . 110.8(7) no
O281 S42 O158 . . . 110.1(7) no
O231 S43 O277 . . . 108.5(7) no
O231 S43 O280 . . . 109.4(7) no
O241 S43 O231 . . . 111.9(7) no
O241 S43 O277 . . . 108.8(6) no
O241 S43 O280 . . . 109.7(7) no
O277 S43 O280 . . . 108.5(7) no
O144 S44 O274 . . . 108.8(7) no
O144 S44 O400 . . . 111.0(9) no
O272 S44 O144 . . . 110.4(8) no
O272 S44 O274 . . . 109.8(6) no
O272 S44 O400 . . . 109.0(7) no
O400 S44 O274 . . . 107.8(10) no
O126 S45 O275 . . . 109.0(9) no
O126 S45 O286 . . . 109.7(7) no
O286 S45 O275 . . . 110.4(7) no
O365 S45 O126 . . . 109.0(8) no
O365 S45 O275 . . . 109.1(8) no
O365 S45 O286 . . . 109.8(8) no
O288 S46 O190 . . . 108.3(7) no
O288 S46 O299 . . . 107.7(7) no
O299 S46 O190 . . . 110.2(7) no
O390 S46 O190 . . . 108.8(8) no
O390 S46 O288 . . . 110.4(7) no
O390 S46 O299 . . . 111.3(7) no
O135 S47 O305 . . . 108.4(8) no
O204 S47 O135 . . . 109.9(7) no
O204 S47 O305 . . . 108.9(7) no
O234 S47 O135 . . . 108.7(7) no
O234 S47 O204 . . . 110.7(7) no
O234 S47 O305 . . . 110.1(7) no
O247 S48 O177 . . . 110.0(8) no
O311 S48 O177 . . . 109.7(8) no
O311 S48 O247 . . . 108.0(9) no
O311 S48 O373 . . . 109.9(8) no
O373 S48 O177 . . . 107.(1) no
O373 S48 O247 . . . 112.3(8) no
O295 S49 Ce74 . . . 130.0(5) no
O295 S49 O307 . . . 109.5(7) no
O295 S49 O310 . . . 107.3(7) no
O295 S49 O393 . . . 109.9(8) no
O307 S49 Ce74 . . . 54.9(4) no
O307 S49 O310 . . . 103.2(6) no
O310 S49 Ce74 . . . 49.6(4) no
O393 S49 Ce74 . . . 120.1(6) no
O393 S49 O307 . . . 110.7(9) no
O393 S49 O310 . . . 115.8(10) no
O304 S50 O312 . . . 110.6(7) no
O344 S50 O304 . . . 110.8(8) no
O344 S50 O312 . . . 107.8(7) no
O361 S50 O304 . . . 110.5(8) no
O361 S50 O312 . . . 108.3(8) no
O361 S50 O344 . . . 108.9(8) no
O143 S51 O350 . . . 110.2(7) no
O143 S51 O363 . . . 108.1(7) no
O347 S51 O143 . . . 107.8(8) no
O347 S51 O350 . . . 108.8(8) no
O347 S51 O363 . . . 110.1(8) no
O363 S51 O350 . . . 111.8(8) no
O136 S52 O255 . . . 110.6(7) no
O221 S52 O136 . . . 110.4(8) no
O221 S52 O255 . . . 108.1(7) no
O283 S52 O136 . . . 107.8(8) no
O283 S52 O221 . . . 109.4(8) no
O283 S52 O255 . . . 110.6(8) no
O227 S53 O246 . . . 109.1(6) no
O227 S53 O289 . . . 111.1(7) no
O230 S53 O227 . . . 106.3(7) no
O230 S53 O246 . . . 112.3(7) no
O230 S53 O289 . . . 109.1(7) no
O289 S53 O246 . . . 108.9(7) no
O263 S54 O340 . . . 110.7(8) no
O300 S54 O263 . . . 110.3(9) no
O300 S54 O340 . . . 106.5(8) no
O300 S54 O387 . . . 110.3(8) no
O387 S54 O263 . . . 110.2(8) no
O387 S54 O340 . . . 108.7(9) no
O114 S55 O306 . . . 108.7(8) no
O114 S55 O343 . . . 110.7(8) no
O114 S55 O406 . . . 109.7(8) no
O306 S55 O406 . . . 109.6(8) no
O343 S55 O306 . . . 111.6(8) no
O343 S55 O406 . . . 106.5(9) no
O351 S56 O321 . . . 108.0(7) no
O375 S56 O321 . . . 110.6(8) no
O375 S56 O351 . . . 110.8(9) no
O410 S56 O321 . . . 110.9(9) no
O410 S56 O351 . . . 108.4(8) no
O410 S56 O375 . . . 108.1(9) no
O182 S57 O313 . . . 109.0(8) no
O188 S57 O182 . . . 110.0(8) no
O188 S57 O313 . . . 110.8(9) no
O188 S57 O360 . . . 111.0(8) no
O360 S57 O182 . . . 109.1(9) no
O360 S57 O313 . . . 106.8(8) no
O137 S58 O232 . . . 110.4(8) no
O137 S58 O386 . . . 110.7(8) no
O356 S58 O137 . . . 109.0(8) no
O356 S58 O232 . . . 109.3(8) no
O356 S58 O386 . . . 108.2(8) no
O386 S58 O232 . . . 109.2(8) no
O133 S59 O214 . . . 110.5(7) no
O133 S59 O362 . . . 106.1(8) no
O214 S59 O362 . . . 111.8(7) no
O349 S59 O133 . . . 109.7(7) no
O349 S59 O214 . . . 108.9(9) no
O349 S59 O362 . . . 109.9(8) no
O279 S60 O219 . . . 113.4(8) no
O279 S60 O308 . . . 107.6(8) no
O279 S60 O318 . . . 108.8(7) no
O308 S60 O219 . . . 109.3(6) no
O318 S60 O219 . . . 108.5(7) no
O318 S60 O308 . . . 109.2(7) no
O270 S61 O193 . . . 109.4(7) no
O270 S61 O358 . . . 110.3(8) no
O301 S61 O193 . . . 110.4(8) no
O301 S61 O270 . . . 108.7(8) no
O301 S61 O358 . . . 109.7(9) no
O358 S61 O193 . . . 108.4(7) no
O172 S62 O296 . . . 108.0(7) no
O172 S62 O371 . . . 109.0(8) no
O172 S62 O379 . . . 110.0(7) no
O296 S62 O371 . . . 110.8(8) no
O296 S62 O379 . . . 108.5(9) no
O371 S62 O379 . . . 110.5(9) no
O315 S63 O378 . . . 110.6(7) no
O315 S63 O385 . . . 109.6(8) no
O315 S63 O411 . . . 110.3(10) no
O385 S63 O378 . . . 110.6(9) no
O411 S63 O378 . . . 107.2(7) no
O411 S63 O385 . . . 108.6(7) no
O123 S64 Ce75 . . . 129.8(5) no
O123 S64 O391 . . . 109.5(8) no
O330 S64 Ce75 . . . 50.8(4) no
O330 S64 O123 . . . 109.7(7) no
O330 S64 O391 . . . 107.4(7) no
O330 S64 O413 . . . 113.4(10) no
O391 S64 Ce75 . . . 56.9(6) no
O413 S64 Ce75 . . . 118.7(7) no
O413 S64 O123 . . . 111.5(8) no
O413 S64 O391 . . . 105.2(9) no
O222 S65 O408 . . . 108.3(8) no
O222 S65 O416 . . . 107.9(8) no
O405 S65 O222 . . . 109.5(9) no
O405 S65 O408 . . . 109.0(9) no
O405 S65 O416 . . . 111.4(11) no
O416 S65 O408 . . . 110.8(10) no
O309 S66 O417 . . . 110.3(10) no
O309 S66 O420 . . . 110.5(12) no
O309 S66 O423 . . . 107.3(13) no
O417 S66 O420 . . . 111.6(11) no
O417 S66 O423 . . . 111.4(15) no
O423 S66 O420 . . . 105.7(14) no
O369 S67 O425 . . . 106.1(8) no
O388 S67 O369 . . . 110.5(8) no
O388 S67 O421 . . . 109.6(8) no
O388 S67 O425 . . . 111.9(8) no
O421 S67 O369 . . . 106.4(8) no
O421 S67 O425 . . . 112.2(11) no
O322 S68 O409 . . . 111.9(9) no
O322 S68 O436 . . . 101.9(12) no
O322 S68 O448 . . . 115.7(12) no
O409 S68 O436 . . . 106.0(11) no
O448 S68 O409 . . . 116.3(14) no
Ce6 O2 Ce21 . . . 127.2(4) no
Ce20 O2 Ce6 . . . 111.8(3) no
Ce20 O2 Ce21 . . . 112.0(4) no
Ce14 O3 Ce4 . . . 117.3(3) no
Ce33 O3 Ce4 . . . 115.4(4) no
Ce33 O3 Ce14 . . . 114.7(4) no
Ce2 O4 Ce3 . . . 100.0(3) no
Ce2 O4 Ce6 . . . 104.3(3) no
Ce6 O4 Ce3 . . . 98.8(3) no
S9 O5 Ce1 . . . 146.9(6) no
S3 O6 Ce13 . . . 149.1(6) no
Ce12 O7 Ce27 . . . 117.7(4) no
Ce14 O7 Ce12 . . . 111.7(4) no
Ce14 O7 Ce27 . . . 121.8(4) no
Ce52 O8 Ce36 . . . 119.6(4) no
Ce52 O8 Ce59 . . . 113.2(4) no
Ce59 O8 Ce36 . . . 118.1(5) no
Ce39 O9 Ce24 . . . 118.2(5) no
Ce62 O9 Ce24 . . . 114.6(4) no
Ce62 O9 Ce39 . . . 114.9(4) no
S8 O10 Ce33 . . . 131.9(6) no
S2 O11 Ce8 . . . 130.1(6) no
Ce7 O12 Ce20 . . . 100.7(3) no
Ce7 O12 Ce63 . . . 100.1(3) no
Ce20 O12 Ce63 . . . 145.2(4) no
Ce21 O12 Ce7 . . . 101.9(3) no
Ce21 O12 Ce20 . . . 101.7(3) no
Ce21 O12 Ce63 . . . 100.8(3) no
Ce48 O13 Ce18 . . . 120.1(4) no
Ce56 O13 Ce18 . . . 111.7(4) no
Ce56 O13 Ce48 . . . 119.8(4) no
Ce9 O14 Ce22 . . . 99.8(3) no
Ce9 O14 Ce26 . . . 104.4(3) no
Ce26 O14 Ce22 . . . 100.3(3) no
Ce25 O15 Ce41 . . . 103.4(4) no
Ce25 O15 Ce57 . . . 103.7(4) no
Ce25 O15 Ce60 . . . 100.2(3) no
Ce41 O15 Ce57 . . . 102.7(3) no
Ce41 O15 Ce60 . . . 98.9(4) no
Ce57 O15 Ce60 . . . 142.9(4) no
S2 O16 Ce4 . . . 128.7(5) no
Ce11 O17 Ce12 . . . 115.3(5) no
Ce33 O17 Ce11 . . . 115.1(4) no
Ce33 O17 Ce12 . . . 114.5(4) no
Ce24 O18 Ce39 . . . 106.6(4) no
Ce24 O18 Ce42 . . . 101.4(3) no
Ce39 O18 Ce42 . . . 99.9(3) no
S2 O19 Ce74 . . 2_666 139.4(6) no
S18 O20 Ce40 . . . 130.2(5) no
Ce5 O21 Ce10 . . . 117.7(4) no
Ce29 O21 Ce5 . . . 114.1(4) no
Ce29 O21 Ce10 . . . 116.1(4) no
Ce39 O22 Ce42 . . . 120.3(4) no
Ce39 O22 Ce58 . . . 112.9(4) no
Ce58 O22 Ce42 . . . 116.7(4) no
Ce6 O23 Ce20 . . . 101.6(3) no
Ce6 O23 Ce29 . . . 99.3(3) no
Ce10 O23 Ce6 . . . 102.2(3) no
Ce10 O23 Ce20 . . . 101.6(4) no
Ce10 O23 Ce29 . . . 101.2(3) no
Ce20 O23 Ce29 . . . 144.7(4) no
Ce25 O24 Ce35 . . . 118.8(4) no
Ce60 O24 Ce25 . . . 115.1(4) no
Ce60 O24 Ce35 . . . 114.7(5) no
Ce2 O25 Ce3 . . . 118.5(4) no
Ce2 O25 Ce5 . . . 112.4(4) no
Ce5 O25 Ce3 . . . 117.4(4) no
Ce28 O26 Ce34 . . . 102.3(4) no
Ce28 O26 Ce55 . . . 99.7(4) no
Ce28 O26 Ce57 . . . 102.3(4) no
Ce34 O26 Ce55 . . . 99.2(4) no
Ce34 O26 Ce57 . . . 101.4(4) no
Ce57 O26 Ce55 . . . 145.6(4) no
Ce50 O27 Ce34 . . . 116.2(4) no
Ce55 O27 Ce34 . . . 116.3(5) no
Ce55 O27 Ce50 . . . 115.8(5) no
Ce53 O28 Ce52 . . . 117.3(4) no
Ce70 O28 Ce52 . . . 115.1(4) no
Ce70 O28 Ce53 . . . 116.1(4) no
Ce4 O29 Ce8 . . . 102.1(3) no
Ce4 O29 Ce33 . . . 99.8(3) no
Ce8 O29 Ce33 . . . 144.6(3) no
Ce11 O29 Ce4 . . . 102.7(3) no
Ce11 O29 Ce8 . . . 102.4(3) no
Ce11 O29 Ce33 . . . 99.4(3) no
Ce8 O30 Ce11 . . . 112.8(4) no
Ce8 O30 Ce15 . . . 111.5(4) no
Ce11 O30 Ce15 . . . 125.6(4) no
Ce24 O31 Ce13 . . . 127.7(4) no
Ce32 O31 Ce13 . . . 111.7(4) no
Ce32 O31 Ce24 . . . 111.4(4) no
S4 O32 Ce3 . . . 144.1(6) no
Ce28 O33 Ce34 . . . 113.1(4) no
Ce28 O33 Ce37 . . . 120.6(4) no
Ce34 O33 Ce37 . . . 117.3(4) no
S18 O34 Ce1 . . . 129.3(6) no
Ce1 O35 Ce17 . . . 118.2(4) no
Ce40 O35 Ce1 . . . 115.7(4) no
Ce40 O35 Ce17 . . . 115.0(4) no
Ce4 O36 Ce1 . . . 125.3(4) no
Ce8 O36 Ce1 . . . 112.5(4) no
Ce8 O36 Ce4 . . . 112.1(3) no
Ce9 O37 Ce2 . . . 99.2(3) no
S12 O37 Ce2 . . . 128.5(6) no
S12 O37 Ce9 . . . 129.6(6) no
Ce17 O38 Ce40 . . . 100.7(4) no
Ce17 O38 Ce44 . . . 100.8(4) no
Ce19 O38 Ce17 . . . 104.1(3) no
Ce19 O38 Ce40 . . . 101.1(4) no
Ce19 O38 Ce44 . . . 101.0(4) no
Ce44 O38 Ce40 . . . 144.2(4) no
S37 O39 Ce20 . . . 133.1(6) no
Ce34 O40 Ce41 . . . 126.7(4) no
Ce57 O40 Ce34 . . . 113.1(4) no
Ce57 O40 Ce41 . . . 113.6(4) no
Ce46 O41 Ce48 . . . 118.5(4) no
Ce46 O41 Ce65 . . . 112.2(4) no
Ce65 O41 Ce48 . . . 120.4(4) no
Ce2 O42 Ce6 . . . 118.2(4) no
Ce29 O42 Ce2 . . . 116.6(4) no
Ce29 O42 Ce6 . . . 112.9(4) no
Ce5 O43 Ce3 . . . 99.0(4) no
Ce10 O43 Ce3 . . . 101.1(3) no
Ce10 O43 Ce5 . . . 105.2(3) no
Ce7 O44 Ce23 . . . 119.2(4) no
Ce21 O44 Ce7 . . . 111.4(4) no
Ce21 O44 Ce23 . . . 119.5(4) no
Ce9 O45 Ce2 . . . 126.8(4) no
Ce38 O45 Ce2 . . . 110.5(4) no
Ce38 O45 Ce9 . . . 112.7(3) no
S16 O47 Ce77 . . 2_667 148.3(7) no
Ce24 O48 Ce32 . . . 101.2(3) no
Ce24 O48 Ce45 . . . 102.7(3) no
Ce24 O48 Ce62 . . . 102.1(3) no
Ce32 O48 Ce62 . . . 144.0(4) no
Ce45 O48 Ce32 . . . 100.8(4) no
Ce45 O48 Ce62 . . . 100.4(3) no
Ce56 O49 Ce48 . . . 100.3(3) no
Ce65 O49 Ce48 . . . 101.5(3) no
Ce65 O49 Ce56 . . . 104.6(4) no
Ce7 O50 Ce10 . . . 126.9(4) no
Ce20 O50 Ce7 . . . 113.0(4) no
Ce20 O50 Ce10 . . . 110.0(4) no
S16 O51 Ce22 . . . 149.2(6) no
S3 O52 Ce77 . . . 104.5(5) no
Ce6 O53 Ce3 . . . 119.1(4) no
Ce10 O53 Ce3 . . . 118.7(4) no
Ce10 O53 Ce6 . . . 112.4(4) no
Ce11 O54 Ce27 . . . 100.3(3) no
Ce12 O54 Ce11 . . . 104.0(4) no
Ce12 O54 Ce27 . . . 99.8(3) no
S2 O55 Ce33 . . . 131.4(6) no
Ce16 O56 Ce43 . . . 100.4(3) no
Ce41 O56 Ce16 . . . 104.1(3) no
Ce41 O56 Ce43 . . . 100.1(3) no
Ce31 O57 Ce5 . . . 98.6(3) no
S4 O57 Ce5 . . . 130.0(6) no
S4 O57 Ce31 . . . 129.9(6) no
S40 O58 Ce51 . . . 131.7(7) no
S24 O59 Ce55 . . . 129.3(6) no
Ce24 O60 Ce42 . . . 118.7(4) no
Ce24 O60 Ce45 . . . 112.4(4) no
Ce45 O60 Ce42 . . . 119.3(4) no
Ce18 O61 Ce48 . . . 101.9(4) no
Ce46 O61 Ce18 . . . 104.4(4) no
Ce46 O61 Ce48 . . . 101.1(3) no
Ce26 O62 Ce22 . . . 120.5(4) no
Ce26 O62 Ce54 . . . 113.2(4) no
Ce54 O62 Ce22 . . . 117.7(4) no
Ce41 O63 Ce16 . . . 117.8(4) no
Ce60 O63 Ce16 . . . 114.8(4) no
Ce60 O63 Ce41 . . . 115.2(4) no
Ce1 O64 Ce30 . . . 100.8(3) no
Ce17 O64 Ce1 . . . 104.0(3) no
Ce17 O64 Ce30 . . . 100.8(3) no
Ce35 O65 Ce19 . . . 123.7(4) no
Ce44 O65 Ce19 . . . 112.8(4) no
Ce44 O65 Ce35 . . . 114.0(4) no
Ce17 O66 Ce19 . . . 110.9(3) no
Ce17 O66 Ce30 . . . 120.6(4) no
Ce30 O66 Ce19 . . . 118.9(4) no
Ce15 O67 Ce1 . . . 111.9(4) no
Ce15 O67 Ce30 . . . 119.5(4) no
Ce30 O67 Ce1 . . . 120.4(4) no
S1 O68 Ce23 . . . 147.5(7) no
Ce45 O69 Ce42 . . . 101.6(3) no
Ce58 O69 Ce42 . . . 101.2(4) no
Ce58 O69 Ce45 . . . 103.5(4) no
S29 O70 Ce29 . . . 132.1(6) no
S35 O71 Ce77 . . 2_667 100.3(5) no
Ce1 O72 Ce8 . . . 101.0(3) no
Ce1 O72 Ce40 . . . 100.4(3) no
Ce8 O72 Ce40 . . . 144.9(4) no
Ce15 O72 Ce1 . . . 103.1(3) no
Ce15 O72 Ce8 . . . 101.3(3) no
Ce15 O72 Ce40 . . . 100.6(3) no
Ce4 O73 Ce1 . . . 99.2(3) no
S6 O73 Ce1 . . . 128.6(6) no
S6 O73 Ce4 . . . 129.5(5) no
Ce52 O74 Ce39 . . . 127.1(5) no
Ce64 O74 Ce39 . . . 113.2(5) no
Ce64 O74 Ce52 . . . 110.8(4) no
Ce2 O76 Ce5 . . . 102.7(3) no
Ce2 O76 Ce29 . . . 101.9(3) no
Ce2 O76 Ce38 . . . 101.7(4) no
Ce5 O76 Ce29 . . . 99.3(3) no
Ce5 O76 Ce38 . . . 101.7(3) no
Ce38 O76 Ce29 . . . 143.8(4) no
S13 O77 Ce42 . . . 147.1(6) no
Ce28 O78 Ce25 . . . 126.7(5) no
Ce57 O78 Ce25 . . . 111.1(4) no
Ce57 O78 Ce28 . . . 113.5(4) no
S28 O79 Ce11 . . . 129.1(6) no
Ce31 O80 Ce22 . . . 101.7(3) no
Ce31 O80 Ce54 . . . 105.9(4) no
Ce54 O80 Ce22 . . . 100.3(4) no
Ce13 O81 Ce24 . . . 101.3(3) no
S7 O81 Ce13 . . . 129.1(6) no
S7 O81 Ce24 . . . 127.6(5) no
Ce17 O82 Ce16 . . . 125.8(4) no
Ce44 O82 Ce16 . . . 111.7(4) no
Ce44 O82 Ce17 . . . 112.8(4) no
Ce59 O83 Ce36 . . . 100.2(3) no
Ce61 O83 Ce36 . . . 101.4(3) no
Ce61 O83 Ce59 . . . 104.9(4) no
Ce16 O84 Ce35 . . . 103.1(4) no
Ce16 O84 Ce44 . . . 101.1(4) no
Ce16 O84 Ce60 . . . 101.7(3) no
Ce35 O84 Ce44 . . . 101.7(4) no
Ce35 O84 Ce60 . . . 101.0(4) no
Ce44 O84 Ce60 . . . 143.0(4) no
Ce51 O85 Ce14 . . . 111.6(4) no
Ce56 O85 Ce14 . . . 129.1(6) no
Ce56 O85 Ce51 . . . 111.5(5) no
Ce21 O86 Ce23 . . . 100.6(3) no
Ce21 O86 Ce47 . . . 105.2(3) no
Ce47 O86 Ce23 . . . 100.0(3) no
S9 O87 Ce73 . . . 93.1(6) no
S8 O88 Ce51 . . . 130.4(6) no
Ce49 O89 Ce7 . . . 117.1(4) no
Ce63 O89 Ce7 . . . 114.9(4) no
Ce63 O89 Ce49 . . . 114.7(4) no
S19 O90 Ce40 . . . 134.2(6) no
S8 O91 Ce12 . . . 129.7(6) no
Ce47 O92 Ce21 . . . 117.9(4) no
Ce63 O92 Ce21 . . . 114.5(4) no
Ce63 O92 Ce47 . . . 114.7(5) no
Ce19 O93 Ce15 . . . 118.6(4) no
Ce40 O93 Ce15 . . . 113.5(5) no
Ce40 O93 Ce19 . . . 115.3(4) no
Ce39 O94 Ce52 . . . 101.2(3) no
S13 O94 Ce39 . . . 125.1(6) no
S13 O94 Ce52 . . . 130.9(6) no
Ce26 O95 Ce53 . . . 99.0(3) no
S16 O95 Ce26 . . . 128.5(6) no
S16 O95 Ce53 . . . 129.9(5) no
Ce9 O96 Ce22 . . . 118.9(4) no
Ce9 O96 Ce31 . . . 112.2(4) no
Ce31 O96 Ce22 . . . 117.8(4) no
S28 O97 Ce33 . . . 132.9(6) no
S7 O99 Ce77 . . . 150.0(6) no
Ce7 O100 Ce23 . . . 98.8(3) no
Ce49 O100 Ce7 . . . 104.2(4) no
Ce49 O100 Ce23 . . . 99.6(3) no
Ce13 O101 Ce32 . . . 101.6(4) no
Ce13 O101 Ce55 . . . 100.1(3) no
Ce32 O101 Ce55 . . . 144.4(4) no
Ce50 O101 Ce13 . . . 103.3(4) no
Ce50 O101 Ce32 . . . 102.1(4) no
Ce50 O101 Ce55 . . . 100.0(4) no
Ce4 O102 Ce11 . . . 112.0(3) no
Ce4 O102 Ce27 . . . 118.3(4) no
Ce11 O102 Ce27 . . . 118.4(4) no
Ce52 O103 Ce59 . . . 103.9(4) no
Ce52 O103 Ce64 . . . 101.7(3) no
Ce52 O103 Ce70 . . . 102.2(4) no
Ce59 O103 Ce64 . . . 101.4(4) no
Ce59 O103 Ce70 . . . 99.3(3) no
Ce64 O103 Ce70 . . . 143.4(4) no
Ce15 O104 Ce19 . . . 103.6(3) no
Ce15 O104 Ce30 . . . 100.9(3) no
Ce19 O104 Ce30 . . . 100.8(3) no
Ce12 O105 Ce14 . . . 102.3(4) no
Ce12 O105 Ce33 . . . 101.7(3) no
Ce12 O105 Ce51 . . . 100.6(3) no
Ce14 O105 Ce33 . . . 100.5(3) no
Ce14 O105 Ce51 . . . 100.8(3) no
Ce51 O105 Ce33 . . . 144.9(4) no
Ce15 O106 Ce11 . . . 99.6(3) no
S15 O106 Ce11 . . . 128.9(5) no
S15 O106 Ce15 . . . 128.4(6) no
S1 O107 Ce3 . . . 154.7(7) no
Ce32 O108 Ce45 . . . 111.8(4) no
Ce50 O108 Ce32 . . . 113.1(4) no
Ce50 O108 Ce45 . . . 127.6(5) no
S41 O109 Ce45 . . . 130.2(7) no
S15 O110 Ce30 . . . 149.2(6) no
S3 O111 Ce77 . . . 99.3(5) no
Ce21 O112 Ce6 . . . 99.4(3) no
S5 O112 Ce6 . . . 129.3(5) no
S5 O112 Ce21 . . . 130.3(5) no
S4 O113 Ce74 . . . 146.3(6) no
S55 O114 Ce57 . . . 130.6(7) no
S30 O115 Ce48 . . 2_666 145.6(6) no
Ce13 O116 Ce37 . . . 120.4(4) no
Ce13 O116 Ce50 . . . 112.1(4) no
Ce50 O116 Ce37 . . . 117.9(4) no
S42 O117 Ce34 . . . 129.6(6) no
S14 O118 Ce37 . . . 147.2(7) no
S5 O119 Ce23 . . . 149.2(7) no
S36 O120 Ce15 . . . 128.7(6) no
Ce16 O121 Ce43 . . . 118.6(4) no
Ce35 O121 Ce16 . . . 110.4(4) no
Ce35 O121 Ce43 . . . 118.6(5) no
Ce53 O122 Ce36 . . . 119.7(4) no
Ce61 O122 Ce36 . . . 119.8(4) no
Ce61 O122 Ce53 . . . 110.7(4) no
S64 O123 Ce6 . . . 150.3(7) no
S10 O124 Ce29 . . . 133.3(6) no
S45 O126 Ce57 . . . 129.8(7) no
S28 O127 Ce8 . . . 129.4(6) no
S5 O128 Ce75 . . . 148.3(6) no
Ce61 O129 Ce54 . . . 126.5(5) no
Ce67 O129 Ce54 . . . 112.5(4) no
Ce67 O129 Ce61 . . . 113.3(4) no
Ce28 O130 Ce25 . . . 100.0(3) no
S14 O130 Ce25 . . . 128.7(5) no
S14 O130 Ce28 . . . 128.8(5) no
S15 O131 Ce27 . . . 143.0(7) no
S27 O132 Ce16 . . . 128.8(7) no
S59 O133 Ce62 . . . 131.0(6) no
S12 O134 Ce3 . . . 149.2(6) no
S47 O135 Ce46 . . . 127.2(7) no
S52 O136 Ce60 . . . 130.0(6) no
S58 O137 Ce52 . . . 128.4(8) no
S38 O138 Ce62 . . . 129.8(6) no
Ce28 O139 Ce13 . . . 117.2(4) no
Ce55 O139 Ce13 . . . 114.4(4) no
Ce55 O139 Ce28 . . . 115.4(4) no
S35 O140 Ce53 . . . 148.0(7) no
S42 O141 Ce55 . . . 131.5(6) no
S39 O142 Ce20 . . . 127.4(6) no
S51 O143 Ce26 . . . 126.3(7) no
S44 O144 Ce69 . . . 131.0(7) no
Ce52 O145 Ce36 . . . 100.2(3) no
Ce52 O145 Ce53 . . . 103.2(4) no
Ce53 O145 Ce36 . . . 99.3(3) no
Ce18 O146 Ce51 . . . 101.7(4) no
Ce18 O146 Ce69 . . . 99.6(3) no
Ce51 O146 Ce69 . . . 144.0(5) no
Ce56 O146 Ce18 . . . 103.7(4) no
Ce56 O146 Ce51 . . . 101.7(4) no
Ce56 O146 Ce69 . . . 101.0(3) no
S40 O147 Ce14 . . . 132.1(7) no
S9 O148 Ce72 . . . 136.4(7) no
S9 O148 Ce73 . . . 109.0(6) no
S33 O149 Ce32 . . . 131.3(6) no
S17 O150 Ce36 . . . 151.8(6) no
Ce23 O151 Ce49 . . . 119.4(4) no
Ce47 O151 Ce23 . . . 119.2(4) no
Ce47 O151 Ce49 . . . 111.1(4) no
S25 O152 Ce43 . . . 147.9(7) no
S19 O153 Ce17 . . . 129.5(7) no
S7 O154 Ce42 . . . 150.8(6) no
S39 O155 Ce29 . . . 130.0(5) no
S5 O156 Ce3 . . . 144.1(6) no
S24 O157 Ce32 . . . 129.9(6) no
S42 O158 Ce57 . . . 130.2(7) no
S6 O159 Ce27 . . . 149.9(7) no
S18 O160 Ce8 . . . 133.0(5) no
S22 O161 Ce63 . . . 131.8(7) no
Ce25 O162 Ce43 . . . 117.4(4) no
Ce41 O162 Ce25 . . . 113.0(4) no
Ce41 O162 Ce43 . . . 119.1(4) no
S40 O163 Ce33 . . . 129.4(6) no
Ce18 O164 Ce46 . . . 116.4(5) no
Ce69 O164 Ce18 . . . 116.3(5) no
Ce69 O164 Ce46 . . . 116.0(4) no
S10 O165 Ce38 . . . 131.5(5) no
S4 O166 Ce22 . . . 145.8(6) no
S22 O167 Ce21 . . . 126.1(7) no
Ce7 O168 Ce10 . . . 99.3(3) no
S1 O168 Ce7 . . . 128.7(5) no
S1 O168 Ce10 . . . 128.3(6) no
Ce26 O169 Ce9 . . . 119.6(4) no
Ce66 O169 Ce9 . . . 115.9(5) no
Ce66 O169 Ce26 . . . 113.6(5) no
Ce65 O170 Ce56 . . . 114.5(5) no
Ce69 O170 Ce56 . . . 117.1(4) no
Ce69 O170 Ce65 . . . 116.5(6) no
S11 O171 Ce30 . . . 148.1(6) no
S62 O172 Ce63 . . . 131.0(7) no
Ce26 O173 Ce67 . . . 111.8(5) no
Ce53 O173 Ce26 . . . 129.0(4) no
Ce53 O173 Ce67 . . . 110.3(4) no
S13 O174 Ce36 . . . 150.4(6) no
Ce19 O175 Ce35 . . . 98.6(3) no
S25 O175 Ce19 . . . 130.7(6) no
S25 O175 Ce35 . . . 127.2(6) no
S19 O176 Ce44 . . . 131.5(6) no
S48 O177 Ce56 . . . 127.5(8) no
Ce5 O178 Ce31 . . . 126.3(4) no
Ce5 O178 Ce38 . . . 112.3(4) no
Ce38 O178 Ce31 . . . 110.6(4) no
S27 O179 Ce44 . . . 130.7(5) no
S41 O180 Ce32 . . . 128.5(7) no
S16 O181 Ce36 . . . 138.7(5) no
S57 O182 Ce59 . . . 129.0(7) no
Ce45 O184 Ce58 . . . 117.2(5) no
Ce62 O184 Ce45 . . . 115.8(5) no
Ce62 O184 Ce58 . . . 113.9(5) no
S36 O185 Ce8 . . . 133.3(5) no
S10 O187 Ce2 . . . 129.2(6) no
S57 O188 Ce64 . . . 130.9(8) no
Ce46 O189 Ce47 . . . 100.7(3) no
S21 O189 Ce46 . . . 127.6(5) no
S21 O189 Ce47 . . . 129.6(5) no
S46 O190 Ce28 . . . 127.3(6) no
S61 O193 Ce53 . . . 126.2(7) no
Ce18 O194 Ce12 . . . 128.2(5) no
Ce18 O194 Ce51 . . . 112.4(4) no
Ce51 O194 Ce12 . . . 111.3(4) no
Ce13 O196 Ce37 . . . 100.0(3) no
Ce28 O196 Ce13 . . . 104.7(3) no
Ce28 O196 Ce37 . . . 100.6(3) no
S23 O197 Ce9 . . . 128.1(6) no
Ce14 O198 Ce56 . . . 100.5(3) no
S26 O198 Ce14 . . . 129.6(6) no
S26 O198 Ce56 . . . 128.5(5) no
O449 O200 Ce14 . . . 154.7(10) no
Ce9 O202 Ce38 . . . 99.8(3) no
Ce9 O202 Ce66 . . . 100.4(3) no
Ce31 O202 Ce9 . . . 102.1(3) no
Ce31 O202 Ce38 . . . 102.0(4) no
Ce31 O202 Ce66 . . . 101.5(4) no
Ce38 O202 Ce66 . . . 144.8(4) no
Ce25 O203 Ce35 . . . 105.9(4) no
Ce25 O203 Ce43 . . . 101.5(4) no
Ce35 O203 Ce43 . . . 100.9(4) no
S47 O204 Ce68 . . . 129.3(7) no
Ce47 O205 Ce63 . . . 100.8(4) no
Ce47 O205 Ce68 . . . 101.0(4) no
Ce49 O205 Ce47 . . . 103.8(4) no
Ce49 O205 Ce63 . . . 100.9(4) no
Ce49 O205 Ce68 . . . 101.9(4) no
Ce68 O205 Ce63 . . . 143.4(5) no
S7 O206 Ce37 . . . 143.5(6) no
Ce47 O207 Ce46 . . . 125.3(5) no
Ce68 O207 Ce46 . . . 112.2(4) no
Ce68 O207 Ce47 . . . 114.3(4) no
Ce16 O208 Ce17 . . . 100.2(3) no
S11 O208 Ce16 . . . 128.3(6) no
S11 O208 Ce17 . . . 128.0(6) no
Ce61 O209 Ce54 . . . 101.1(4) no
S17 O209 Ce54 . . . 131.2(6) no
S17 O209 Ce61 . . . 125.5(6) no
Ce34 O210 Ce37 . . . 101.1(3) no
Ce50 O210 Ce34 . . . 103.5(4) no
Ce50 O210 Ce37 . . . 101.4(4) no
S39 O213 Ce6 . . . 129.8(7) no
S59 O214 Ce58 . . . 128.4(8) no
S26 O215 Ce27 . . . 148.2(7) no
Ce39 O216 Ce62 . . . 99.4(3) no
Ce39 O216 Ce64 . . . 102.9(3) no
Ce58 O216 Ce39 . . . 103.6(4) no
Ce58 O216 Ce62 . . . 101.1(3) no
Ce58 O216 Ce64 . . . 101.6(4) no
Ce64 O216 Ce62 . . . 143.1(5) no
S23 O217 Ce38 . . . 131.0(7) no
S23 O218 Ce66 . . . 133.7(6) no
S60 O219 Ce31 . . . 128.5(7) no
Ce4 O220 Ce14 . . . 103.3(3) no
Ce4 O220 Ce27 . . . 100.8(3) no
Ce14 O220 Ce27 . . . 100.1(4) no
S52 O221 Ce44 . . . 131.4(6) no
S65 O222 Ce39 . . . 141.5(8) no
Ce58 O224 Ce59 . . . 127.3(5) no
Ce58 O224 Ce64 . . . 112.4(4) no
Ce64 O224 Ce59 . . . 112.2(4) no
S36 O225 Ce40 . . . 132.1(6) no
Ce45 O226 Ce50 . . . 99.2(3) no
S34 O226 Ce45 . . . 129.9(6) no
S34 O226 Ce50 . . . 128.0(6) no
S53 O227 Ce44 . . . 132.0(6) no
Ce34 O228 Ce41 . . . 99.5(3) no
S20 O228 Ce34 . . . 131.7(6) no
S20 O228 Ce41 . . . 127.1(6) no
S53 O230 Ce19 . . . 131.7(7) no
S58 O232 Ce70 . . . 131.7(7) no
Ce46 O233 Ce69 . . . 99.9(3) no
Ce65 O233 Ce46 . . . 102.7(4) no
Ce65 O233 Ce68 . . . 102.4(4) no
Ce65 O233 Ce69 . . . 100.3(4) no
Ce68 O233 Ce46 . . . 102.2(4) no
Ce68 O233 Ce69 . . . 143.7(5) no
S47 O234 Ce69 . . . 134.3(7) no
S27 O235 Ce60 . . . 130.6(6) no
Ce49 O236 Ce65 . . . 125.9(6) no
Ce68 O236 Ce49 . . . 113.7(4) no
Ce68 O236 Ce65 . . . 111.4(4) no
S17 O238 Ce22 . . . 139.9(7) no
S29 O239 Ce5 . . . 132.0(6) no
S37 O240 Ce10 . . . 129.0(6) no
S43 O241 Ce7 . . . 130.9(6) no
S24 O244 Ce50 . . . 130.9(7) no
Ce59 O245 Ce58 . . . 98.7(4) no
S31 O245 Ce58 . . . 131.5(7) no
S31 O245 Ce59 . . . 127.4(7) no
S48 O247 Ce51 . . . 131.5(8) no
S26 O248 Ce48 . . . 148.8(7) no
S20 O249 Ce37 . . . 145.1(6) no
Ce49 O251 Ce65 2_666 . 2_666 98.9(4) no
S30 O251 Ce49 . . 2_666 130.7(5) no
S30 O251 Ce65 . . 2_666 128.6(5) no
S6 O253 Ce72 . . . 174.6(10) no
S6 O253 Ce73 . . . 154.1(11) no
S12 O254 Ce22 . . . 147.4(6) no
S52 O255 Ce35 . . . 129.3(6) no
Ce53 O257 Ce61 . . . 104.0(4) no
Ce53 O257 Ce67 . . . 101.6(3) no
Ce53 O257 Ce70 . . . 99.8(4) no
Ce61 O257 Ce67 . . . 103.0(4) no
Ce61 O257 Ce70 . . . 99.8(3) no
Ce67 O257 Ce70 . . . 143.7(4) no
Ce18 O258 Ce12 . . . 98.6(3) no
S32 O258 Ce12 . . . 128.1(6) no
S32 O258 Ce18 . . . 130.8(5) no
S22 O259 Ce20 . . . 131.5(7) no
S38 O260 Ce24 . . . 129.1(6) no
S54 O263 Ce70 . . . 133.2(7) no
Ce59 O264 Ce61 . . . 117.5(5) no
Ce70 O264 Ce59 . . . 115.0(5) no
Ce70 O264 Ce61 . . . 114.9(4) no
S38 O265 Ce75 . . 2_667 137.9(6) no
Ce54 O267 Ce31 . . . 116.7(5) no
Ce66 O267 Ce31 . . . 113.7(4) no
Ce66 O267 Ce54 . . . 115.0(5) no
S61 O270 Ce67 . . . 131.8(7) no
S38 O271 Ce32 . . . 128.8(6) no
S44 O272 Ce51 . . . 129.3(6) no
S30 O273 Ce23 . . 2_666 149.8(8) no
S44 O274 Ce18 . . . 130.9(7) no
S45 O275 Ce60 . . . 129.9(6) no
S29 O276 Ce38 . . . 131.1(6) no
S43 O277 Ce20 . . . 131.6(5) no
S31 O278 Ce42 . . . 148.6(8) no
S43 O280 Ce63 . . . 130.5(6) no
S32 O285 Ce27 . . . 146.2(7) no
S45 O286 Ce25 . . . 129.2(6) no
S46 O288 Ce57 . . . 132.6(7) no
S53 O289 Ce40 . . . 132.1(6) no
Ce26 O290 Ce66 . . . 99.5(4) no
Ce26 O290 Ce67 . . . 102.4(4) no
Ce54 O290 Ce26 . . . 103.8(3) no
Ce54 O290 Ce66 . . . 101.0(4) no
Ce54 O290 Ce67 . . . 101.7(4) no
Ce67 O290 Ce66 . . . 143.4(4) no
S33 O292 Ce13 . . . 129.0(6) no
S37 O294 Ce29 . . . 131.9(6) no
S49 O295 Ce5 . . . 150.8(7) no
S62 O296 Ce47 . . . 133.1(8) no
S35 O297 Ce77 . . 2_667 100.3(6) no
S46 O299 Ce55 . . . 132.7(7) no
S54 O300 Ce67 . . . 134.5(7) no
S61 O301 Ce70 . . . 132.2(7) no
S6 O302 Ce30 . . . 142.2(7) no
S41 O303 Ce62 . . . 130.0(6) no
S50 O304 Ce62 . . . 129.1(7) no
S55 O306 Ce60 . . . 130.2(7) no
S49 O307 Ce74 . . . 97.6(5) no
S60 O308 Ce38 . . . 131.4(6) no
S66 O309 Ce19 . . . 150.1(8) no
S49 O310 Ce74 . . . 101.5(6) no
S48 O311 Ce69 . . . 133.1(8) no
S50 O312 Ce39 . . . 130.1(7) no
S57 O313 Ce70 . . . 129.6(7) no
S63 O315 Ce49 . . . 127.8(9) no
S32 O316 Ce48 . . . 149.4(7) no
S34 O317 Ce37 . . . 149.6(7) no
S60 O318 Ce66 . . . 133.1(6) no
S31 O319 Ce36 . . . 148.6(7) no
S34 O320 Ce42 . . . 146.3(7) no
S56 O321 Ce54 . . . 130.0(7) no
S68 O322 Ce54 . . . 145.1(8) no
S21 O324 Ce23 . . . 144.0(6) no
S64 O330 Ce75 . . . 103.2(6) no
S30 O331 Ce72 . . . 148.6(7) no
S30 O331 Ce73 . . . 151.2(8) no
S14 O332 Ce43 . . . 143.6(7) no
S33 O334 Ce55 . . . 129.9(6) no
S11 O337 Ce43 . . . 147.8(7) no
S20 O338 Ce43 . . . 148.7(7) no
S54 O340 Ce61 . . . 126.5(8) no
S55 O343 Ce41 . . . 127.5(8) no
S50 O344 Ce64 . . . 130.9(7) no
S21 O348 Ce48 . . . 151.1(7) no
S51 O350 Ce67 . . . 131.2(6) no
S56 O351 Ce66 . . . 130.4(7) no
S58 O356 Ce64 . . . 131.4(8) no
S25 O357 Ce30 . . . 149.1(8) no
S59 O362 Ce64 . . . 129.2(7) no
S51 O363 Ce66 . . . 131.5(6) no
S67 O369 Ce69 . . . 129.7(7) no
S62 O371 Ce68 . . . 127.6(7) no
S56 O375 Ce67 . . . 129.0(7) no
S63 O378 Ce63 . . . 129.7(6) no
S25 O380 Ce76 . . . 138.7(8) no
S63 O385 Ce68 . . . 130.8(7) no
S67 O388 Ce68 . . . 126.7(6) no
S64 O391 Ce75 . . . 94.3(7) no
S67 O425 Ce65 . . . 128.4(9) no
O445 O453 Ce73 2_666 . . 116.9(10) no
