data_nd-u6
_audit_creation_date               2022-12-02
_audit_creation_method
;
Olex2 1.3
(compiled 2020.11.12 svn.r5f609507 for OlexSys, GUI svn.r6408)
;
_shelx_SHELXL_version_number       '2018/3'
_audit_contact_author_address      ?
_audit_contact_author_email        ?
_audit_contact_author_name         ''
_audit_contact_author_phone        ?
_publ_contact_author_id_orcid      ?
_publ_section_references
;
Dolomanov, O.V., Bourhis, L.J., Gildea, R.J, Howard, J.A.K. & Puschmann, H.
 (2009), J. Appl. Cryst. 42, 339-341.

Sheldrick, G.M. (2015). Acta Cryst. C71, 3-8.
;
_chemical_name_common              ?
_chemical_name_systematic          ?
_chemical_formula_moiety           'Nd2 O39 S6 U3'
_chemical_formula_sum              'Nd2 O39 S6 U3'
_chemical_formula_weight           1818.93
_chemical_melting_point            ?
loop_
  _atom_type_symbol
  _atom_type_description
  _atom_type_scat_dispersion_real
  _atom_type_scat_dispersion_imag
  _atom_type_scat_source
 'Nd' 'Nd' -3.1807 10.9079
 'International Tables Vol C Tables 4.2.6.8 and 6.1.1.4'
 'O' 'O' 0.0492 0.0322 'International Tables Vol C Tables 4.2.6.8 and 6.1.1.4'
 'S' 'S' 0.3331 0.5567 'International Tables Vol C Tables 4.2.6.8 and 6.1.1.4'
 'U' 'U' -4.3638 13.4090 'International Tables Vol C Tables 4.2.6.8 and 6.1.1.4'

_shelx_space_group_comment
;
The symmetry employed for this shelxl refinement is uniquely defined
by the following loop, which should always be used as a source of
symmetry information in preference to the above space-group names.
They are only intended as comments.
;
_space_group_crystal_system        'orthorhombic'
_space_group_IT_number             58
_space_group_name_H-M_alt          'P n n m'
_space_group_name_Hall             '-P 2 2n'
loop_
  _space_group_symop_operation_xyz
 'x, y, z'
 '-x, -y, z'
 '-x+1/2, y+1/2, -z+1/2'
 'x+1/2, -y+1/2, -z+1/2'
 '-x, -y, -z'
 'x, y, -z'
 'x-1/2, -y-1/2, z-1/2'
 '-x-1/2, y-1/2, z-1/2'

# end Validation Reply Form
_cell_length_a                     17.2007(3)
_cell_length_b                     10.9388(2)
_cell_length_c                     19.8085(4)
_cell_angle_alpha                  90
_cell_angle_beta                   90
_cell_angle_gamma                  90
_cell_volume                       3727.07(12)
_cell_formula_units_Z              4
_cell_measurement_reflns_used      8331
_cell_measurement_temperature      171(2)
_cell_measurement_theta_max        76.0660
_cell_measurement_theta_min        3.4000
_shelx_estimated_absorpt_T_max     0.579
_shelx_estimated_absorpt_T_min     0.374
_exptl_absorpt_coefficient_mu      61.311
_exptl_absorpt_correction_T_max    1.00000
_exptl_absorpt_correction_T_min    0.32291
_exptl_absorpt_correction_type     multi-scan
_exptl_absorpt_process_details
;
CrysAlisPro 1.171.40.21a (Rigaku Oxford Diffraction, 2018)
Empirical absorption correction using spherical harmonics,
 implemented in SCALE3 ABSPACK scaling algorithm.
;
_exptl_absorpt_special_details     ?
_exptl_crystal_colour              'clear green'
_exptl_crystal_colour_lustre       clear
_exptl_crystal_colour_modifier     .
_exptl_crystal_colour_primary      green
_exptl_crystal_density_diffrn      3.242
_exptl_crystal_density_meas        ?
_exptl_crystal_density_method      ?
_exptl_crystal_description         needle
_exptl_crystal_F_000               3216
_exptl_crystal_size_max            0.02
_exptl_crystal_size_mid            0.01
_exptl_crystal_size_min            0.01
_exptl_transmission_factor_max     ?
_exptl_transmission_factor_min     ?
_diffrn_reflns_av_R_equivalents    0.0519
_diffrn_reflns_av_unetI/netI       0.0443
_diffrn_reflns_Laue_measured_fraction_full  1.000
_diffrn_reflns_Laue_measured_fraction_max  0.963
_diffrn_reflns_limit_h_max         20
_diffrn_reflns_limit_h_min         -21
_diffrn_reflns_limit_k_max         12
_diffrn_reflns_limit_k_min         -13
_diffrn_reflns_limit_l_max         16
_diffrn_reflns_limit_l_min         -23
_diffrn_reflns_number              14888
_diffrn_reflns_point_group_measured_fraction_full  1.000
_diffrn_reflns_point_group_measured_fraction_max  0.963
_diffrn_reflns_theta_full          67.684
_diffrn_reflns_theta_max           76.962
_diffrn_reflns_theta_min           3.403
_diffrn_ambient_temperature        171.0
_diffrn_detector_area_resol_mean   ?
_diffrn_detector_type              HyPix
_diffrn_measured_fraction_theta_full  1.000
_diffrn_measured_fraction_theta_max  0.963
_diffrn_measurement_details
;
List of Runs (angles in degrees, time in seconds):

  # Type    Start    End  Width  t~exp~   \w     \q     \k     \f   Frames
--------------------------------------------------------------------------
  1  \w     86.00 113.00   0.50    0.21    --   48.37  50.00-170.00   54
  2  \w    -61.00 -35.00   0.50    0.84    --  -86.25 126.00-111.00   52
  3  \w    -91.00 -49.00   0.50    0.84    --  -86.25 143.00  58.00   84
  4  \w    106.00 177.00   0.50    0.84    --  106.45  70.00   8.00  142
  5  \w   -121.00 -71.00   0.50    0.21    --  -48.37-125.00 -30.00  100
  6  \w    -90.00 -11.00   0.50    0.21    --  -48.37 126.00-111.00  158
  7  \w    -94.00 -69.00   0.50    0.21    --  -48.37 -37.00-150.00   50
  8  \w     69.00  96.00   0.50    0.21    --   48.37-125.00  60.00   54
  9  \w     44.00  70.00   0.50    0.84    --  106.45 -99.00-180.00   52
 10  \w     34.00 117.00   0.50    0.84    --  106.45-125.00 120.00  166
 11  \w     46.00 107.00   0.50    0.84    --  106.45 -99.00 -90.00  122
 12  \w     94.00 152.00   0.50    0.84    --  106.45  57.00 -30.00  116
;
_diffrn_measurement_device         'four-circle diffractometer'
_diffrn_measurement_device_type    'XtaLAB Synergy, Dualflex, HyPix'
_diffrn_measurement_method         '\w scans'
_diffrn_radiation_type             CuK\a
_diffrn_radiation_wavelength       1.54184
_diffrn_source                     ?
_reflns_Friedel_coverage           0.000
_reflns_Friedel_fraction_full      .
_reflns_Friedel_fraction_max       .
_reflns_number_gt                  3598
_reflns_number_total               3909
_reflns_special_details
;
 Reflections were merged by SHELXL according to the crystal
 class for the calculation of statistics and refinement.
 
 Structure factors included contributions from the .fab file.
 
 _reflns_Friedel_fraction is defined as the number of unique
 Friedel pairs measured divided by the number that would be
 possible theoretically, ignoring centric projections and
 systematic absences.
;
_reflns_threshold_expression       'I > 2\s(I)'
_computing_cell_refinement         'CrysAlisPro 1.171.40.21a (Rigaku OD, 2018)'
_computing_data_collection         'CrysAlisPro 1.171.40.21a (Rigaku OD, 2018)'
_computing_data_reduction          'CrysAlisPro 1.171.40.21a (Rigaku OD, 2018)'
_computing_molecular_graphics      'Olex2 1.3 (Dolomanov et al., 2009)'
_computing_publication_material    'Olex2 1.3 (Dolomanov et al., 2009)'
_computing_structure_refinement    'SHELXL 2018/3 (Sheldrick, 2015)'
_computing_structure_solution      'ShelXT (Sheldrick, 2015)'
_refine_diff_density_max           3.260
_refine_diff_density_min           -5.113
_refine_diff_density_rms           0.404
_refine_ls_extinction_coef         .
_refine_ls_extinction_method       none
_refine_ls_goodness_of_fit_ref     1.110
_refine_ls_hydrogen_treatment      undef
_refine_ls_matrix_type             full
_refine_ls_number_parameters       239
_refine_ls_number_reflns           3909
_refine_ls_number_restraints       0
_refine_ls_R_factor_all            0.0761
_refine_ls_R_factor_gt             0.0723
_refine_ls_restrained_S_all        1.110
_refine_ls_shift/su_max            0.001
_refine_ls_shift/su_mean           0.000
_refine_ls_structure_factor_coef   Fsqd
_refine_ls_weighting_details      
 'w=1/[\s^2^(Fo^2^)+379.2731P] where P=(Fo^2^+2Fc^2^)/3'
_refine_ls_weighting_scheme        calc
_refine_ls_wR_factor_gt            0.1579
_refine_ls_wR_factor_ref           0.1599
_refine_special_details            ?
_olex2_refinement_description
;
1. Uiso/Uaniso restraints and constraints
Uanis(O3A) = Uanis(O3B) = Uanis(O2B) = Uanis(O2A)
Uiso(O22) = Uiso(O0AA) = Uiso(O21) = Uiso(O1AA)
2. Others
 Fixed Sof: O11(0.5) O16(0.5) O2B(0.5) O3B(0.5) O18(0.5) O19(0.5) O21(0.5)
 O22(0.5) O2A(0.5) O3A(0.5) O23(0.5) O24(0.5) O0AA(0.5) O1AA(0.5)
;
_atom_sites_solution_hydrogens     .
_atom_sites_solution_primary       ?
_atom_sites_solution_secondary     ?
loop_
  _atom_site_label
  _atom_site_type_symbol
  _atom_site_fract_x
  _atom_site_fract_y
  _atom_site_fract_z
  _atom_site_U_iso_or_equiv
  _atom_site_adp_type
  _atom_site_occupancy
  _atom_site_site_symmetry_order
  _atom_site_calc_flag
  _atom_site_refinement_flags_posn
  _atom_site_refinement_flags_adp
  _atom_site_refinement_flags_occupancy
  _atom_site_disorder_assembly
  _atom_site_disorder_group
 U3 U 0.84274(5) 0.04961(8) 0.000000 0.0320(2) Uani 1 2 d S T P . .
 U2 U 0.96904(5) -0.23788(8) 0.000000 0.0312(2) Uani 1 2 d S T P . .
 U1 U 1.000000 0.000000 -0.13880(5) 0.0346(2) Uani 1 2 d S T P . .
 Nd04 Nd 0.83809(9) 0.42450(11) 0.23890(8) 0.0560(4) Uani 1 1 d . . . . .
 S1 S 1.0352(4) 0.3258(5) -0.1761(4) 0.0520(15) Uani 1 1 d . . . . .
 S3 S 0.8062(4) 0.1103(5) 0.1750(4) 0.0567(18) Uani 1 1 d . . . . .
 S2 S 0.7597(4) -0.2629(7) 0.000000 0.052(2) Uani 1 2 d S T P . .
 S4 S 0.7139(5) 0.2634(8) 0.000000 0.067(3) Uani 1 2 d S T P . .
 O1 O 0.7990(12) 0.264(2) 0.000000 0.058(7) Uani 1 2 d S T P . .
 O2 O 0.7596(11) -0.1241(19) 0.000000 0.048(6) Uani 1 2 d S T P B .
 O3 O 0.8426(12) -0.302(2) 0.000000 0.063(8) Uani 1 2 d S T P B .
 O4 O 0.8778(10) 0.0442(15) 0.1947(8) 0.054(4) Uani 1 1 d . . . . .
 O5 O 0.7797(9) 0.0653(15) 0.1075(9) 0.050(4) Uani 1 1 d . . . . .
 O6 O 0.8214(12) 0.2423(13) 0.1726(11) 0.071(6) Uani 1 1 d . . . . .
 O7 O 1.0364(12) 0.1905(15) -0.1884(9) 0.061(5) Uani 1 1 d . . . . .
 O8 O 1.0438(12) 0.3478(15) -0.1032(10) 0.064(5) Uani 1 1 d . . . . .
 O9 O 0.7979(16) 0.4783(14) 0.1251(12) 0.088(7) Uani 1 1 d . . . . .
 O10 O 0.7444(11) 0.0846(14) 0.2232(11) 0.069(6) Uani 1 1 d . . . . .
 O11 O 0.974(2) 0.364(4) -0.218(2) 0.060(9) Uiso 0.5 1 d . . P A 2
 O12 O 1.1022(12) 0.3809(15) -0.2099(10) 0.068(6) Uani 1 1 d . . . . .
 O13 O 1.0685(15) -0.412(2) 0.000000 0.090(12) Uani 1 2 d S T P . .
 O14 O 0.6885(12) 0.3310(19) -0.0592(15) 0.093(8) Uani 1 1 d . . . . .
 O15 O 0.689(2) 0.134(3) 0.000000 0.094(10) Uiso 1 2 d S . P . .
 O16 O 0.744(3) -0.302(4) 0.080(2) 0.078(12) Uiso 0.5 1 d . . P B 2
 O17 O 0.872(3) 0.256(3) 0.322(2) 0.162(16) Uani 1 1 d . . . C 1
 O2B O 1.1042(14) 0.104(2) -0.0773(15) 0.027(3) Uani 0.5 1 d . . P D 2
 O3B O 1.0521(15) -0.124(2) -0.0585(16) 0.027(3) Uani 0.5 1 d . . P D 2
 O18 O 0.875(2) 0.503(4) 0.359(2) 0.079(14) Uani 0.5 1 d . . P C .
 O19 O 0.918(3) 0.500(5) 0.332(2) 0.089(14) Uani 0.5 1 d . . P C .
 O21 O 0.722(4) 0.331(6) 0.290(3) 0.102(9) Uiso 0.5 1 d . . P C .
 O22 O 0.687(3) 0.400(5) 0.201(3) 0.102(9) Uiso 0.5 1 d . . P C 1
 O2A O 1.0749(14) 0.072(2) -0.0543(15) 0.027(3) Uani 0.5 1 d . . P D 1
 O3A O 1.0680(15) -0.163(2) -0.0733(16) 0.027(3) Uani 0.5 1 d . . P D 1
 O23 O 0.705(2) -0.310(4) 0.038(2) 0.063(10) Uiso 0.5 1 d . . P B 1
 O24 O 0.9570(17) 0.385(3) -0.1854(16) 0.039(7) Uiso 0.5 1 d . . P A 1
 O0AA O 0.701(3) 0.334(6) 0.247(3) 0.102(9) Uiso 0.5 1 d . . P C .
 O1AA O 0.756(3) 0.306(5) 0.326(3) 0.102(9) Uiso 0.5 1 d . . P C .

loop_
  _atom_site_aniso_label
  _atom_site_aniso_U_11
  _atom_site_aniso_U_22
  _atom_site_aniso_U_33
  _atom_site_aniso_U_23
  _atom_site_aniso_U_13
  _atom_site_aniso_U_12
 U3 0.0218(4) 0.0176(4) 0.0565(6) 0.000 0.000 -0.0007(3)
 U2 0.0255(4) 0.0146(4) 0.0537(6) 0.000 0.000 -0.0016(3)
 U1 0.0408(5) 0.0240(4) 0.0389(5) 0.000 0.000 -0.0048(4)
 Nd04 0.0744(9) 0.0225(6) 0.0710(10) -0.0052(6) 0.0406(8) -0.0043(6)
 S1 0.050(3) 0.032(3) 0.074(4) 0.024(3) -0.007(3) -0.012(2)
 S3 0.069(4) 0.019(2) 0.082(5) -0.002(3) 0.047(4) -0.004(2)
 S2 0.022(3) 0.027(4) 0.108(8) 0.000 0.000 -0.007(3)
 S4 0.036(4) 0.030(4) 0.134(10) 0.000 0.000 0.001(3)
 O1 0.029(11) 0.041(13) 0.10(2) 0.000 0.000 0.018(10)
 O2 0.022(9) 0.029(11) 0.092(18) 0.000 0.000 -0.003(8)
 O3 0.024(10) 0.034(12) 0.13(3) 0.000 0.000 -0.006(9)
 O4 0.065(10) 0.050(10) 0.046(9) -0.009(8) 0.028(8) -0.001(8)
 O5 0.040(8) 0.044(9) 0.066(11) -0.005(8) 0.027(8) -0.004(7)
 O6 0.091(13) 0.015(7) 0.106(16) 0.000(8) 0.064(12) -0.010(8)
 O7 0.085(13) 0.036(9) 0.063(11) 0.019(8) -0.003(10) -0.011(9)
 O8 0.081(13) 0.039(9) 0.071(12) 0.002(9) 0.018(10) -0.013(9)
 O9 0.15(2) 0.012(8) 0.101(16) -0.002(9) -0.007(16) 0.000(10)
 O10 0.083(13) 0.027(8) 0.096(15) 0.001(9) 0.064(12) 0.005(8)
 O12 0.094(14) 0.029(8) 0.081(13) 0.008(9) 0.036(11) -0.026(9)
 O13 0.043(14) 0.032(13) 0.19(4) 0.000 0.000 0.006(11)
 O14 0.069(13) 0.052(12) 0.16(2) 0.032(14) -0.020(15) 0.020(10)
 O17 0.25(4) 0.070(18) 0.17(3) 0.02(2) -0.04(3) -0.04(2)
 O2B 0.018(8) 0.014(8) 0.048(9) -0.001(6) -0.003(7) 0.005(5)
 O3B 0.018(8) 0.014(8) 0.048(9) -0.001(6) -0.003(7) 0.005(5)
 O18 0.06(2) 0.09(3) 0.09(3) 0.05(3) 0.04(2) 0.03(2)
 O19 0.07(3) 0.13(4) 0.07(3) 0.02(3) 0.01(2) 0.00(3)
 O2A 0.018(8) 0.014(8) 0.048(9) -0.001(6) -0.003(7) 0.005(5)
 O3A 0.018(8) 0.014(8) 0.048(9) -0.001(6) -0.003(7) 0.005(5)

_geom_special_details
;
 All esds (except the esd in the dihedral angle between two l.s. planes)
 are estimated using the full covariance matrix.  The cell esds are taken
 into account individually in the estimation of esds in distances, angles
 and torsion angles; correlations between esds in cell parameters are only
 used when they are defined by crystal symmetry.  An approximate (isotropic)
 treatment of cell esds is used for estimating esds involving l.s. planes.
;
loop_
  _geom_bond_atom_site_label_1
  _geom_bond_atom_site_label_2
  _geom_bond_distance
  _geom_bond_site_symmetry_2
  _geom_bond_publ_flag
 U3 O1 2.47(2) . ?
 U3 O2 2.38(2) . ?
 U3 O5 2.396(16) . ?
 U3 O5 2.396(16) 6 ?
 U3 O2B 2.45(3) 5_755 ?
 U3 O2B 2.45(3) 2_755 ?
 U3 O3B 2.30(3) 5_755 ?
 U3 O3B 2.30(3) 2_755 ?
 U3 O2A 2.22(2) 2_755 ?
 U3 O2A 2.22(2) 5_755 ?
 U3 O3A 2.45(3) 2_755 ?
 U3 O3A 2.45(3) 5_755 ?
 U2 O3 2.29(2) . ?
 U2 O8 2.381(19) 2_755 ?
 U2 O8 2.381(19) 5_755 ?
 U2 O13 2.56(2) . ?
 U2 O2B 2.47(3) 5_755 ?
 U2 O2B 2.47(3) 2_755 ?
 U2 O3B 2.22(3) 6 ?
 U2 O3B 2.22(3) . ?
 U2 O2A 2.24(3) 2_755 ?
 U2 O2A 2.24(3) 5_755 ?
 U2 O3A 2.38(3) 6 ?
 U2 O3A 2.38(3) . ?
 U1 O4 2.424(15) 6 ?
 U1 O4 2.424(15) 5_755 ?
 U1 O7 2.387(16) 2_755 ?
 U1 O7 2.387(16) . ?
 U1 O2B 2.45(3) . ?
 U1 O2B 2.45(3) 2_755 ?
 U1 O3B 2.27(3) . ?
 U1 O3B 2.27(3) 2_755 ?
 U1 O2A 2.25(3) . ?
 U1 O2A 2.25(3) 2_755 ?
 U1 O3A 2.50(3) 2_755 ?
 U1 O3A 2.50(3) . ?
 Nd04 O6 2.405(18) . ?
 Nd04 O9 2.43(2) . ?
 Nd04 O10 2.375(16) 3_655 ?
 Nd04 O11 2.46(4) 6 ?
 Nd04 O12 2.433(15) 5_765 ?
 Nd04 O17 2.54(3) . ?
 Nd04 O18 2.61(5) . ?
 Nd04 O19 2.44(5) . ?
 Nd04 O21 2.47(6) . ?
 Nd04 O22 2.72(5) . ?
 Nd04 O24 2.34(3) 6 ?
 Nd04 O0AA 2.57(6) . ?
 Nd04 O1AA 2.58(6) . ?
 S1 O7 1.499(18) . ?
 S1 O8 1.47(2) . ?
 S1 O11 1.41(4) . ?
 S1 O12 1.462(17) . ?
 S1 O24 1.50(3) . ?
 S3 O4 1.481(19) . ?
 S3 O5 1.495(19) . ?
 S3 O6 1.467(15) . ?
 S3 O10 1.457(16) . ?
 S2 O2 1.52(2) . ?
 S2 O3 1.49(2) . ?
 S2 O16 1.67(5) 6 ?
 S2 O16 1.67(5) . ?
 S2 O23 1.32(4) . ?
 S2 O23 1.32(4) 6 ?
 S4 O1 1.46(2) . ?
 S4 O14 1.45(2) 6 ?
 S4 O14 1.45(2) . ?
 S4 O15 1.48(4) . ?
 O18 O19 0.91(5) . ?
 O21 O0AA 0.93(7) . ?
 O21 O1AA 0.95(7) . ?
 O22 O0AA 1.20(7) . ?
 O23 O23 1.51(8) 6 ?

loop_
  _geom_angle_atom_site_label_1
  _geom_angle_atom_site_label_2
  _geom_angle_atom_site_label_3
  _geom_angle
  _geom_angle_site_symmetry_1
  _geom_angle_site_symmetry_3
  _geom_angle_publ_flag
 O2 U3 O1 125.3(7) . . ?
 O2 U3 O5 77.6(4) . . ?
 O2 U3 O5 77.6(4) . 6 ?
 O2 U3 O2B 71.2(7) . 2_755 ?
 O2 U3 O2B 71.2(7) . 5_755 ?
 O2 U3 O3A 141.5(7) . 2_755 ?
 O2 U3 O3A 141.5(7) . 5_755 ?
 O5 U3 O1 78.1(5) 6 . ?
 O5 U3 O1 78.1(5) . . ?
 O5 U3 O5 125.5(8) 6 . ?
 O5 U3 O2B 140.7(7) . 2_755 ?
 O5 U3 O2B 140.7(7) 6 5_755 ?
 O5 U3 O2B 70.2(8) 6 2_755 ?
 O5 U3 O2B 70.2(8) . 5_755 ?
 O5 U3 O3A 73.8(8) 6 2_755 ?
 O5 U3 O3A 140.6(8) . 2_755 ?
 O5 U3 O3A 140.6(8) 6 5_755 ?
 O5 U3 O3A 73.8(8) . 5_755 ?
 O2B U3 O1 140.0(6) 5_755 . ?
 O2B U3 O1 140.0(6) 2_755 . ?
 O3B U3 O1 84.5(8) 2_755 . ?
 O3B U3 O1 84.5(8) 5_755 . ?
 O3B U3 O2 139.1(8) 5_755 . ?
 O3B U3 O2 139.1(8) 2_755 . ?
 O3B U3 O5 141.2(9) 2_755 . ?
 O3B U3 O5 83.3(9) 5_755 . ?
 O2A U3 O1 139.9(8) 5_755 . ?
 O2A U3 O1 139.9(8) 2_755 . ?
 O2A U3 O2 84.6(8) 5_755 . ?
 O2A U3 O2 84.6(8) 2_755 . ?
 O2A U3 O5 84.3(9) 2_755 6 ?
 O2A U3 O5 139.7(8) 5_755 6 ?
 O2A U3 O5 84.3(9) 5_755 . ?
 O2A U3 O5 139.7(8) 2_755 . ?
 O2A U3 O2B 18.0(7) 5_755 5_755 ?
 O2A U3 O2B 69.8(9) 5_755 2_755 ?
 O2A U3 O2B 18.0(7) 2_755 2_755 ?
 O2A U3 O2B 69.8(9) 2_755 5_755 ?
 O2A U3 O3B 57.6(10) 5_755 5_755 ?
 O2A U3 O3B 87.3(9) 2_755 5_755 ?
 O2A U3 O3B 87.3(9) 5_755 2_755 ?
 O2A U3 O3B 57.6(10) 2_755 2_755 ?
 O2A U3 O2A 57.9(15) 2_755 5_755 ?
 O2A U3 O3A 67.5(9) 5_755 5_755 ?
 O2A U3 O3A 67.5(9) 2_755 2_755 ?
 O2A U3 O3A 101.0(9) 2_755 5_755 ?
 O2A U3 O3A 101.0(9) 5_755 2_755 ?
 O3A U3 O1 73.0(7) 2_755 . ?
 O3A U3 O1 73.0(7) 5_755 . ?
 O3A U3 O3A 72.5(15) 5_755 2_755 ?
 O3 U2 O8 75.9(6) . 2_755 ?
 O3 U2 O8 75.9(6) . 5_755 ?
 O3 U2 O13 113.9(8) . . ?
 O3 U2 O2B 72.5(7) . 5_755 ?
 O3 U2 O2B 72.5(7) . 2_755 ?
 O3 U2 O3A 141.8(7) . 6 ?
 O3 U2 O3A 141.8(7) . . ?
 O8 U2 O8 118.2(9) 2_755 5_755 ?
 O8 U2 O13 71.7(5) 2_755 . ?
 O8 U2 O13 71.7(5) 5_755 . ?
 O8 U2 O2B 141.8(8) 2_755 5_755 ?
 O8 U2 O2B 141.8(8) 5_755 2_755 ?
 O8 U2 O2B 73.8(8) 5_755 5_755 ?
 O8 U2 O2B 73.8(8) 2_755 2_755 ?
 O2B U2 O13 141.6(6) 2_755 . ?
 O2B U2 O13 141.6(6) 5_755 . ?
 O3B U2 O3 141.7(8) 6 . ?
 O3B U2 O3 141.7(8) . . ?
 O3B U2 O13 89.3(8) . . ?
 O3B U2 O13 89.3(8) 6 . ?
 O2A U2 O3 86.0(8) 2_755 . ?
 O2A U2 O3 86.0(8) 5_755 . ?
 O2A U2 O8 88.1(9) 5_755 5_755 ?
 O2A U2 O8 88.1(9) 2_755 2_755 ?
 O2A U2 O8 142.1(8) 5_755 2_755 ?
 O2A U2 O8 142.1(8) 2_755 5_755 ?
 O2A U2 O13 145.9(7) 2_755 . ?
 O2A U2 O13 145.9(7) 5_755 . ?
 O2A U2 O2B 17.8(7) 5_755 5_755 ?
 O2A U2 O2B 69.1(9) 5_755 2_755 ?
 O2A U2 O2B 17.8(7) 2_755 2_755 ?
 O2A U2 O2B 69.1(9) 2_755 5_755 ?
 O2A U2 O2A 57.3(14) 5_755 2_755 ?
 O2A U2 O3A 70.8(9) 2_755 . ?
 O2A U2 O3A 104.8(9) 5_755 . ?
 O2A U2 O3A 104.8(9) 2_755 6 ?
 O2A U2 O3A 70.8(9) 5_755 6 ?
 O3A U2 O8 73.5(8) . 2_755 ?
 O3A U2 O8 139.7(8) 6 2_755 ?
 O3A U2 O8 73.5(8) 6 5_755 ?
 O3A U2 O8 139.7(8) . 5_755 ?
 O3A U2 O13 77.1(7) . . ?
 O3A U2 O13 77.1(7) 6 . ?
 O3A U2 O2B 122.7(9) 6 2_755 ?
 O3A U2 O2B 77.5(9) 6 5_755 ?
 O3A U2 O2B 122.7(9) . 5_755 ?
 O3A U2 O2B 77.5(9) . 2_755 ?
 O3A U2 O3A 75.1(14) 6 . ?
 O4 U1 O4 125.7(9) 6 5_755 ?
 O4 U1 O2B 140.4(7) 5_755 2_755 ?
 O4 U1 O2B 140.4(7) 6 . ?
 O4 U1 O2B 71.6(8) 6 2_755 ?
 O4 U1 O2B 71.6(8) 5_755 . ?
 O4 U1 O3A 71.9(8) 6 2_755 ?
 O4 U1 O3A 141.7(8) 5_755 2_755 ?
 O4 U1 O3A 141.7(8) 6 . ?
 O4 U1 O3A 71.9(8) 5_755 . ?
 O7 U1 O4 82.3(6) . 6 ?
 O7 U1 O4 76.0(6) . 5_755 ?
 O7 U1 O4 82.3(6) 2_755 5_755 ?
 O7 U1 O4 76.0(6) 2_755 6 ?
 O7 U1 O7 131.4(9) . 2_755 ?
 O7 U1 O2B 143.3(7) 2_755 . ?
 O7 U1 O2B 66.9(8) 2_755 2_755 ?
 O7 U1 O2B 66.9(8) . . ?
 O7 U1 O2B 143.3(7) . 2_755 ?
 O7 U1 O3A 73.3(8) . 2_755 ?
 O7 U1 O3A 135.7(8) . . ?
 O7 U1 O3A 73.3(8) 2_755 . ?
 O7 U1 O3A 135.7(8) 2_755 2_755 ?
 O3B U1 O7 82.6(8) 2_755 . ?
 O3B U1 O7 134.8(8) . . ?
 O3B U1 O2B 68.8(9) . . ?
 O3B U1 O2B 70.4(9) 2_755 . ?
 O3B U1 O3B 91.2(14) 2_755 . ?
 O2A U1 O4 85.0(8) 2_755 6 ?
 O2A U1 O4 85.0(8) . 5_755 ?
 O2A U1 O4 139.9(7) 2_755 5_755 ?
 O2A U1 O4 139.9(7) . 6 ?
 O2A U1 O7 81.5(8) 2_755 2_755 ?
 O2A U1 O7 139.4(8) . 2_755 ?
 O2A U1 O7 139.4(8) 2_755 . ?
 O2A U1 O7 81.5(8) . . ?
 O2A U1 O2B 102.1(12) . 2_755 ?
 O2A U1 O2B 18.1(8) 2_755 2_755 ?
 O2A U1 O3B 59.8(10) . 2_755 ?
 O2A U1 O3B 57.5(10) 2_755 2_755 ?
 O2A U1 O2A 84.0(14) 2_755 . ?
 O2A U1 O3A 68.4(8) . 2_755 ?
 O2A U1 O3A 68.4(8) 2_755 . ?
 O2A U1 O3A 66.2(9) . . ?
 O2A U1 O3A 66.2(9) 2_755 2_755 ?
 O3A U1 O3A 117.4(14) 2_755 . ?
 O6 Nd04 O9 70.1(7) . . ?
 O6 Nd04 O11 78.4(10) . 6 ?
 O6 Nd04 O12 130.3(6) . 5_765 ?
 O6 Nd04 O17 77.1(9) . . ?
 O6 Nd04 O18 143.2(10) . . ?
 O6 Nd04 O19 139.4(15) . . ?
 O6 Nd04 O21 77.6(15) . . ?
 O6 Nd04 O22 69.6(13) . . ?
 O6 Nd04 O0AA 66.8(14) . . ?
 O6 Nd04 O1AA 83.2(13) . . ?
 O9 Nd04 O11 100.5(12) . 6 ?
 O9 Nd04 O12 71.9(7) . 5_765 ?
 O9 Nd04 O17 147.3(9) . . ?
 O9 Nd04 O18 146.7(10) . . ?
 O9 Nd04 O19 141.1(13) . . ?
 O9 Nd04 O21 104.7(17) . . ?
 O9 Nd04 O22 59.6(14) . . ?
 O9 Nd04 O0AA 83.9(16) . . ?
 O9 Nd04 O1AA 125.8(15) . . ?
 O10 Nd04 O6 135.5(7) 3_655 . ?
 O10 Nd04 O9 86.8(7) 3_655 . ?
 O10 Nd04 O11 144.9(10) 3_655 6 ?
 O10 Nd04 O12 71.4(6) 3_655 5_765 ?
 O10 Nd04 O17 118.0(11) 3_655 . ?
 O10 Nd04 O18 67.3(10) 3_655 . ?
 O10 Nd04 O19 81.3(14) 3_655 . ?
 O10 Nd04 O21 72.1(15) 3_655 . ?
 O10 Nd04 O22 65.9(13) 3_655 . ?
 O10 Nd04 O0AA 73.4(14) 3_655 . ?
 O10 Nd04 O1AA 80.4(14) 3_655 . ?
 O11 Nd04 O18 90.5(13) 6 . ?
 O11 Nd04 O21 136.4(17) 6 . ?
 O11 Nd04 O0AA 141.1(16) 6 . ?
 O11 Nd04 O1AA 119.6(17) 6 . ?
 O12 Nd04 O11 78.3(10) 5_765 6 ?
 O12 Nd04 O17 133.8(10) 5_765 . ?
 O12 Nd04 O18 79.9(11) 5_765 . ?
 O12 Nd04 O19 69.2(14) 5_765 . ?
 O12 Nd04 O21 143.5(15) 5_765 . ?
 O12 Nd04 O22 115.2(14) 5_765 . ?
 O12 Nd04 O0AA 138.0(15) 5_765 . ?
 O12 Nd04 O1AA 146.1(14) 5_765 . ?
 O17 Nd04 O18 66.1(12) . . ?
 O17 Nd04 O22 109.1(16) . . ?
 O17 Nd04 O0AA 83.6(17) . . ?
 O17 Nd04 O1AA 47.8(16) . . ?
 O18 Nd04 O22 121.3(15) . . ?
 O19 Nd04 O11 71.5(15) . 6 ?
 O19 Nd04 O17 68.2(15) . . ?
 O19 Nd04 O18 20.5(12) . . ?
 O19 Nd04 O21 107(2) . . ?
 O19 Nd04 O22 141.4(17) . . ?
 O19 Nd04 O0AA 126.8(19) . . ?
 O19 Nd04 O1AA 88.6(18) . . ?
 O21 Nd04 O17 67.5(18) . . ?
 O21 Nd04 O18 87.5(18) . . ?
 O21 Nd04 O22 45.5(19) . . ?
 O21 Nd04 O0AA 21.1(16) . . ?
 O21 Nd04 O1AA 21.6(16) . . ?
 O24 Nd04 O6 72.7(9) 6 . ?
 O24 Nd04 O9 82.8(10) 6 . ?
 O24 Nd04 O10 143.2(8) 6 3_655 ?
 O24 Nd04 O11 17.8(10) 6 6 ?
 O24 Nd04 O12 71.8(9) 6 5_765 ?
 O24 Nd04 O17 87.5(13) 6 . ?
 O24 Nd04 O18 105.1(12) 6 . ?
 O24 Nd04 O19 85.0(14) 6 . ?
 O24 Nd04 O21 144.8(16) 6 . ?
 O24 Nd04 O22 133.6(14) 6 . ?
 O24 Nd04 O0AA 139.5(15) 6 . ?
 O24 Nd04 O1AA 133.4(15) 6 . ?
 O0AA Nd04 O18 106.9(17) . . ?
 O0AA Nd04 O22 26.0(15) . . ?
 O0AA Nd04 O1AA 42.0(18) . . ?
 O1AA Nd04 O18 72.0(16) . . ?
 O1AA Nd04 O22 67.1(18) . . ?
 O7 S1 O24 114.6(15) . . ?
 O8 S1 O7 108.6(10) . . ?
 O8 S1 O24 98.1(16) . . ?
 O11 S1 O7 101.7(18) . . ?
 O11 S1 O8 128(2) . . ?
 O11 S1 O12 101.4(19) . . ?
 O12 S1 O7 108.8(11) . . ?
 O12 S1 O8 107.6(12) . . ?
 O12 S1 O24 118.1(15) . . ?
 O4 S3 O5 109.1(9) . . ?
 O6 S3 O4 109.9(12) . . ?
 O6 S3 O5 110.5(12) . . ?
 O10 S3 O4 109.9(11) . . ?
 O10 S3 O5 107.5(11) . . ?
 O10 S3 O6 110.0(10) . . ?
 O2 S2 O16 104.9(16) . . ?
 O2 S2 O16 104.9(16) . 6 ?
 O3 S2 O2 106.9(12) . . ?
 O3 S2 O16 94.8(16) . . ?
 O3 S2 O16 94.8(16) . 6 ?
 O16 S2 O16 144(3) 6 . ?
 O23 S2 O2 113.2(18) . . ?
 O23 S2 O2 113.2(18) 6 . ?
 O23 S2 O3 124.9(18) 6 . ?
 O23 S2 O3 124.9(18) . . ?
 O23 S2 O16 40(2) 6 6 ?
 O23 S2 O16 109(3) . 6 ?
 O23 S2 O23 70(3) . 6 ?
 O1 S4 U3 46.9(10) . . ?
 O1 S4 O15 107.2(18) . . ?
 O14 S4 U3 125.2(10) 6 . ?
 O14 S4 U3 125.2(10) . . ?
 O14 S4 O1 107.3(11) . . ?
 O14 S4 O1 107.3(11) 6 . ?
 O14 S4 O14 108(2) . 6 ?
 O14 S4 O15 113.6(12) . . ?
 O14 S4 O15 113.6(12) 6 . ?
 O15 S4 U3 60.3(14) . . ?
 S4 O1 U3 107.4(13) . . ?
 S2 O2 U3 143.0(12) . . ?
 S2 O3 U2 145.1(14) . . ?
 S3 O4 U1 134.3(10) . 5_755 ?
 S3 O5 U3 132.9(9) . . ?
 S3 O6 Nd04 144.9(13) . . ?
 S1 O7 U1 142.3(12) . . ?
 S1 O8 U2 138.6(10) . 5_755 ?
 S3 O10 Nd04 141.8(10) . 3_645 ?
 S1 O11 Nd04 153(3) . 6 ?
 S1 O12 Nd04 143.3(11) . 5_765 ?
 S4 O15 U3 92.3(17) . . ?
 U3 O2B U2 102.1(11) 5_755 5_755 ?
 U1 O2B U3 105.6(10) . 5_755 ?
 U1 O2B U2 102.2(9) . 5_755 ?
 U2 O3B U3 116.2(14) . 5_755 ?
 U2 O3B U1 116.5(11) . . ?
 U1 O3B U3 116.9(12) . 5_755 ?
 O19 O18 Nd04 70(5) . . ?
 O18 O19 Nd04 90(5) . . ?
 O0AA O21 Nd04 85(6) . . ?
 O0AA O21 O1AA 158(10) . . ?
 O1AA O21 Nd04 86(6) . . ?
 O0AA O22 Nd04 70(4) . . ?
 U3 O2A U2 117.9(12) 5_755 5_755 ?
 U3 O2A U1 121.1(11) 5_755 . ?
 U2 O2A U1 116.5(10) 5_755 . ?
 U3 O3A U1 103.7(10) 5_755 . ?
 U2 O3A U3 105.1(12) . 5_755 ?
 U2 O3A U1 103.1(9) . . ?
 S2 O23 O23 55.0(17) . 6 ?
 S1 O24 Nd04 156(2) . 6 ?
 O21 O0AA Nd04 73(6) . . ?
 O21 O0AA O22 144(9) . . ?
 O22 O0AA Nd04 84(4) . . ?
 O21 O1AA Nd04 73(5) . . ?

loop_
  _geom_torsion_atom_site_label_1
  _geom_torsion_atom_site_label_2
  _geom_torsion_atom_site_label_3
  _geom_torsion_atom_site_label_4
  _geom_torsion
  _geom_torsion_site_symmetry_1
  _geom_torsion_site_symmetry_2
  _geom_torsion_site_symmetry_3
  _geom_torsion_site_symmetry_4
  _geom_torsion_publ_flag
 Nd04 O21 O0AA O22 -53(14) . . . . ?
 Nd04 O22 O0AA O21 51(14) . . . . ?
 O1 S4 O15 U3 0.0 . . . . ?
 O2 S2 O3 U2 0.0 . . . . ?
 O2 S2 O23 O23 107.5(17) . . . 6 ?
 O3 S2 O2 U3 0.0 . . . . ?
 O3 S2 O23 O23 -119(2) . . . 6 ?
 O4 S3 O5 U3 -54.7(15) . . . . ?
 O4 S3 O6 Nd04 -78(2) . . . . ?
 O4 S3 O10 Nd04 -68(2) . . . 3_645 ?
 O5 S3 O4 U1 49.6(16) . . . 5_755 ?
 O5 S3 O6 Nd04 162.0(19) . . . . ?
 O5 S3 O10 Nd04 50(2) . . . 3_645 ?
 O6 S3 O4 U1 -71.7(16) . . . 5_755 ?
 O6 S3 O5 U3 66.1(15) . . . . ?
 O6 S3 O10 Nd04 170(2) . . . 3_645 ?
 O7 S1 O8 U2 -18(2) . . . 5_755 ?
 O7 S1 O11 Nd04 99(5) . . . 6 ?
 O7 S1 O12 Nd04 172.7(19) . . . 5_765 ?
 O7 S1 O24 Nd04 -45(5) . . . 6 ?
 O8 S1 O7 U1 33(2) . . . . ?
 O8 S1 O11 Nd04 -25(6) . . . 6 ?
 O8 S1 O12 Nd04 -70(2) . . . 5_765 ?
 O8 S1 O24 Nd04 -159(4) . . . 6 ?
 O10 S3 O4 U1 167.1(13) . . . 5_755 ?
 O10 S3 O5 U3 -173.8(12) . . . . ?
 O10 S3 O6 Nd04 44(3) . . . . ?
 O11 S1 O7 U1 -104(2) . . . . ?
 O11 S1 O8 U2 104(3) . . . 5_755 ?
 O11 S1 O12 Nd04 66(3) . . . 5_765 ?
 O12 S1 O7 U1 149.7(18) . . . . ?
 O12 S1 O8 U2 -135.2(17) . . . 5_755 ?
 O12 S1 O11 Nd04 -148(5) . . . 6 ?
 O12 S1 O24 Nd04 86(5) . . . 6 ?
 O14 S4 O1 U3 -122.3(11) . . . . ?
 O14 S4 O1 U3 122.3(11) 6 . . . ?
 O14 S4 O15 U3 118.3(13) . . . . ?
 O14 S4 O15 U3 -118.3(13) 6 . . . ?
 O15 S4 O1 U3 0.0 . . . . ?
 O16 S2 O2 U3 99.8(16) . . . . ?
 O16 S2 O2 U3 -99.8(16) 6 . . . ?
 O16 S2 O3 U2 107.2(16) 6 . . . ?
 O16 S2 O3 U2 -107.2(16) . . . . ?
 O23 S2 O2 U3 -141.4(19) 6 . . . ?
 O23 S2 O2 U3 141.4(19) . . . . ?
 O23 S2 O3 U2 -136(2) . . . . ?
 O23 S2 O3 U2 136(2) 6 . . . ?
 O24 S1 O7 U1 -76(2) . . . . ?
 O24 S1 O8 U2 102(2) . . . 5_755 ?
 O24 S1 O12 Nd04 40(3) . . . 5_765 ?
 O0AA O21 O1AA Nd04 67(27) . . . . ?
 O1AA O21 O0AA Nd04 -67(27) . . . . ?
 O1AA O21 O0AA O22 -120(25) . . . . ?

_smtbx_masks_special_details       ?
loop_
  _smtbx_masks_void_nr
  _smtbx_masks_void_average_x
  _smtbx_masks_void_average_y
  _smtbx_masks_void_average_z
  _smtbx_masks_void_volume
  _smtbx_masks_void_count_electrons
  _smtbx_masks_void_content
 1 0.000 -0.164 0.500 333.3 130.7 ?
 2 0.500 -0.400 0.000 333.3 130.7 ?

_smtbx_masks_void_probe_radius     1.2
_smtbx_masks_void_truncation_radius  1.2
_shelx_res_file
;
TITL u6-nd_a.res in Pnnm
    nd-u6.res
    created by SHELXL-2018/3 at 12:04:24 on 14-Sep-2022
REM Old TITL U6-Nd in P212121 #19
REM SHELXT solution in Pnnm: R1 0.195, Rweak 0.017, Alpha 0.045
REM <I/s> 2.229 for 338 systematic absences, Orientation a'=b, b'=c, c'=a
REM Formula found by SHELXT: O29 S6 U3 Nd2
CELL 1.54184 17.2007 10.9388 19.8085 90 90 90
ZERR 4 0.0003 0.0002 0.0004 0 0 0
LATT 1
SYMM -X,-Y,+Z
SYMM 0.5-X,0.5+Y,0.5-Z
SYMM 0.5+X,0.5-Y,0.5-Z
SFAC Nd O S U
UNIT 8 156 24 12
EADP O3A O3B O2B O2A
EADP O22 O0AA O21 O1AA

L.S. 20
PLAN  22
SIZE 0.01 0.01 0.02
TEMP -102.15
CONF
BIND O22 Nd04
CONN 24 Nd04
list 4
ABIN
MORE -1
fmap 2
acta
REM <olex2.extras>
REM <HklSrc "%./Nd-U6.hkl">
REM </olex2.extras>

WGHT    0.000000  379.273102
FVAR       0.11507
U3    4    0.842739    0.049613    0.000000    10.50000    0.02179    0.01759 =
         0.05651    0.00000    0.00000   -0.00066
U2    4    0.969040   -0.237881    0.000000    10.50000    0.02548    0.01460 =
         0.05365    0.00000    0.00000   -0.00164
U1    4    1.000000    0.000000   -0.138799    10.50000    0.04081    0.02400 =
         0.03894    0.00000    0.00000   -0.00475
ND04  1    0.838086    0.424504    0.238896    11.00000    0.07442    0.02253 =
         0.07096   -0.00524    0.04058   -0.00427
S1    3    1.035201    0.325760   -0.176106    11.00000    0.04998    0.03248 =
         0.07353    0.02386   -0.00697   -0.01164
S3    3    0.806176    0.110339    0.174984    11.00000    0.06898    0.01922 =
         0.08186   -0.00195    0.04700   -0.00379
S2    3    0.759719   -0.262911    0.000000    10.50000    0.02183    0.02716 =
         0.10774    0.00000    0.00000   -0.00719
S4    3    0.713877    0.263421    0.000000    10.50000    0.03561    0.03014 =
         0.13392    0.00000    0.00000    0.00086
O1    2    0.798979    0.264229    0.000000    10.50000    0.02914    0.04067 =
         0.10289    0.00000    0.00000    0.01810
O2    2    0.759638   -0.124065    0.000000    10.50000    0.02239    0.02888 =
         0.09233    0.00000    0.00000   -0.00291
O3    2    0.842626   -0.302447    0.000000    10.50000    0.02424    0.03412 =
         0.13017    0.00000    0.00000   -0.00571
O4    2    0.877807    0.044198    0.194689    11.00000    0.06472    0.05003 =
         0.04641   -0.00884    0.02848   -0.00100
O5    2    0.779726    0.065251    0.107522    11.00000    0.04043    0.04449 =
         0.06572   -0.00522    0.02697   -0.00387
O6    2    0.821447    0.242252    0.172564    11.00000    0.09125    0.01534 =
         0.10563   -0.00037    0.06368   -0.00997
O7    2    1.036401    0.190503   -0.188364    11.00000    0.08518    0.03609 =
         0.06287    0.01937   -0.00323   -0.01134
O8    2    1.043809    0.347757   -0.103185    11.00000    0.08132    0.03864 =
         0.07114    0.00182    0.01773   -0.01264
O9    2    0.797866    0.478268    0.125078    11.00000    0.15247    0.01242 =
         0.10054   -0.00247   -0.00700   -0.00037
O10   2    0.744382    0.084569    0.223215    11.00000    0.08333    0.02691 =
         0.09582    0.00075    0.06416    0.00466
PART 2
O11   2    0.973714    0.363577   -0.218405    10.50000    0.05950
PART 0
O12   2    1.102170    0.380887   -0.209892    11.00000    0.09396    0.02901 =
         0.08118    0.00799    0.03641   -0.02628
O13   2    1.068478   -0.412088    0.000000    10.50000    0.04267    0.03165 =
         0.19492    0.00000    0.00000    0.00556
O14   2    0.688516    0.331027   -0.059173    11.00000    0.06885    0.05197 =
         0.15873    0.03156   -0.02048    0.01993
O15   2    0.688940    0.133589    0.000000    10.50000    0.09405
PART 2
O16   2    0.743707   -0.302274    0.080398    10.50000    0.07768
PART 1
O17   2    0.872062    0.255666    0.321749    11.00000    0.24875    0.06958 =
         0.16853    0.02140   -0.04411   -0.03931
PART 2
O2B   2    1.104205    0.103528   -0.077311    10.50000    0.01847    0.01381 =
         0.04806   -0.00122   -0.00254    0.00473
O3B   2    1.052061   -0.123946   -0.058501    10.50000    0.01847    0.01381 =
         0.04806   -0.00122   -0.00254    0.00473
PART 0
O18   2    0.874966    0.503125    0.358923    10.50000    0.06165    0.08833 =
         0.08632    0.05052    0.03864    0.03143
O19   2    0.918007    0.499990    0.331940    10.50000    0.07077    0.12622 =
         0.07080    0.01533    0.00631   -0.00420
O21   2    0.721846    0.330689    0.290422    10.50000    0.10232
PART 1
O22   2    0.687230    0.399558    0.200725    10.50000    0.10232
O2A   2    1.074857    0.071766   -0.054277    10.50000    0.01847    0.01381 =
         0.04806   -0.00122   -0.00254    0.00473
O3A   2    1.067955   -0.163470   -0.073261    10.50000    0.01847    0.01381 =
         0.04806   -0.00122   -0.00254    0.00473
O23   2    0.704763   -0.310342    0.038166    10.50000    0.06290
O24   2    0.957025    0.384783   -0.185441    10.50000    0.03922
PART 0
O0AA  2    0.700839    0.333753    0.247432    10.50000    0.10232
O1AA  2    0.755807    0.305694    0.325816    10.50000    0.10232
HKLF 4




REM  u6-nd_a.res in Pnnm
REM wR2 = 0.1599, GooF = S = 1.110, Restrained GooF = 1.110 for all data
REM R1 = 0.0723 for 3598 Fo > 4sig(Fo) and 0.0761 for all 3909 data
REM 239 parameters refined using 0 restraints

END

WGHT      0.0000    379.2636

REM Highest difference peak  3.260,  deepest hole -5.113,  1-sigma level  0.404
Q1    1   0.9799  0.0457 -0.1607  11.00000  0.05    3.26
Q2    1   0.9459 -0.2302 -0.0306  11.00000  0.05    3.09
Q3    1   0.8359  0.4628  0.2033  11.00000  0.05    2.92
Q4    1   0.9813 -0.0365 -0.1203  11.00000  0.05    2.35
Q5    1   0.8640  0.0571 -0.0273  11.00000  0.05    2.22
Q6    1   0.8307 -0.1035  0.0000  10.50000  0.05    2.19
Q7    1   0.9940 -0.2428  0.0000  10.50000  0.05    2.17
Q8    1   0.7025 -0.3027  0.0000  10.50000  0.05    2.17
Q9    1   0.8976 -0.2432  0.0000  10.50000  0.05    2.10
Q10   1   0.8150  0.0492  0.0000  10.50000  0.05    1.91
Q11   1   0.7748  0.0509  0.0000  10.50000  0.05    1.87
Q12   1   0.9682 -0.3269  0.0000  10.50000  0.05    1.85
Q13   1   0.8937  0.2262  0.1607  11.00000  0.05    1.73
Q14   1   0.9276 -0.0209  0.1626  11.00000  0.05    1.70
Q15   1   1.0000  0.5000 -0.1364  10.50000  0.05    1.68
Q16   1   0.8508 -0.0174 -0.0306  11.00000  0.05    1.65
Q17   1   1.1199  0.2267 -0.1162  11.00000  0.05    1.63
Q18   1   0.8768  0.0314  0.1213  11.00000  0.05    1.56
Q19   1   0.8508  0.3673  0.0000  10.50000  0.05    1.42
Q20   1   0.9307  0.0162 -0.1094  11.00000  0.05    1.39
Q21   1   0.7803  0.4403  0.0000  10.50000  0.05    1.38
Q22   1   0.9109  0.0405  0.0000  10.50000  0.05    1.33
;
_shelx_res_checksum                86328
_shelx_hkl_file
;
   0   0  -1    0.61    0.66
   0   0  -2  167.57   10.78
   0   0  -3   -0.31    2.72
   0   0  -4 7266.58  356.97
   0   0  -5   -1.00    3.81
   0   0  -6 6950.86  342.29
   0   0  -7    0.54    3.81
   0   0  -8 7872.01  389.55
   0   0  -9    4.52    5.43
   0   0 -10  759.42   47.55
   0   0 -11    2.04    5.70
   0   0 -12 2831.00  152.73
   0   0 -13    8.03    8.07
   0   0 -14 1545.76   93.45
   0   0 -15   13.38   10.27
   0   0 -16 1816.40  110.30
   0   0 -17   16.86    7.18
   0   0 -18   43.97    8.11
   0   0 -19   -2.25    4.91
   0   0 -20  280.16   20.23
   0   0 -21   38.97    6.03
   0   0 -21   40.32    7.95
   0   0 -22  351.10   22.53
   0   0 -23    2.70    3.92
  -1   0   0    0.30    0.77
  -1   0  -1 9904.81  480.91
  -1   0  -2    0.56    1.62
  -1   0  -3   33.35    4.37
  -1   0  -3   22.07    5.94
  -1   0  -4    2.98    5.07
   1   0  -5 4062.64  196.62
  -1   0  -5 3774.80  200.40
  -1   0  -6    6.86    6.01
  -1   0  -6    5.26    4.14
   1   0  -6    0.90    3.40
  -1   0  -7 2797.64  147.04
   1   0  -7 2758.20  142.86
  -1   0  -7 2861.67  143.55
  -1   0  -8    1.35    4.67
   1   0  -8    3.82    4.41
  -1   0  -9 1942.70  107.59
   1   0  -9 2091.57  107.80
   1   0 -10    2.62    4.56
  -1   0 -10    1.82    5.87
   1   0 -11  321.26   26.56
  -1   0 -11  328.80   27.17
  -1   0 -12    1.20    6.81
   1   0 -12    7.02    7.29
  -1   0 -13 1252.35   79.85
   1   0 -13 1397.09   81.30
  -1   0 -14    3.03    8.61
   1   0 -14   -3.02    8.77
   1   0 -15 1130.56   74.74
   1   0 -16    3.66    9.54
  -1   0 -16    6.07    5.67
   1   0 -17  328.55   34.17
  -1   0 -17  296.41   21.46
  -1   0 -18   -3.33    5.57
   1   0 -18   -1.14    5.34
   1   0 -19    0.57    4.88
  -1   0 -19    1.66    4.44
  -1   0 -20    7.35    5.54
   1   0 -20    4.86    5.50
  -1   0 -20    1.18    3.74
  -1   0 -21  369.36   23.53
   1   0 -21  446.05   26.46
  -1   0 -21  437.37   26.15
  -1   0 -22   16.44    5.60
   1   0 -22    6.27    5.65
   1   0 -23   59.99    6.98
  -1   0 -23   62.62    6.92
  -2   0   0  505.99   27.20
  -2   0  -1    0.22    1.93
  -2   0  -2  335.32   19.62
  -2   0  -3   -0.96    2.70
  -2   0  -4 2111.52  122.15
  -2   0  -4 2415.53  117.25
  -2   0  -5    1.77    6.12
  -2   0  -6 1366.06   78.57
  -2   0  -7   -3.12    6.91
   2   0  -7   -3.48    4.57
  -2   0  -7    2.48    3.94
  -2   0  -8   35.35    9.90
   2   0  -8   44.31    7.77
  -2   0  -8   38.30    7.82
  -2   0  -9   -5.83    5.10
  -2   0  -9   14.93    8.73
   2   0 -10   21.54    6.98
  -2   0 -10   14.32    6.20
   2   0 -11   -1.03    5.39
  -2   0 -11    2.18    5.54
   2   0 -12   99.79   15.06
  -2   0 -12  103.05   15.31
   2   0 -13    1.35    7.84
  -2   0 -13    1.13    3.27
  -2   0 -14  702.91   37.69
  -2   0 -14  605.50   37.23
   2   0 -14  696.37   49.84
  -2   0 -15    4.44    3.93
   2   0 -15   -3.40    9.27
  -2   0 -15   -1.86    5.09
   2   0 -16   70.07   16.27
  -2   0 -16   73.76    9.02
  -2   0 -16   54.46    8.05
  -2   0 -17   -4.78    5.51
   2   0 -17   -1.95    9.16
   2   0 -18   81.22   17.50
  -2   0 -18   68.09    9.43
  -2   0 -19    0.54    4.62
  -2   0 -19    3.05    3.44
   2   0 -19    0.57    4.67
   2   0 -20   37.83    7.41
  -2   0 -20   56.21    7.90
  -2   0 -20   46.05    6.42
   2   0 -21    0.49    5.46
  -2   0 -21   -2.88    3.49
  -2   0 -21    3.71    4.81
  -2   0 -22  131.01   11.41
   2   0 -22  127.16   11.50
   2   0 -23    1.97    3.39
  -2   0 -23    0.33    3.35
  -3   0   0    0.30    2.36
  -3   0  -1  308.89   18.91
  -3   0  -2   -0.36    2.87
  -3   0  -3  414.88   25.21
  -3   0  -4    1.38    3.48
  -3   0  -5  841.84   47.00
  -3   0  -5  799.20   53.23
  -3   0  -6    0.60    3.66
  -3   0  -6    5.83    7.02
  -3   0  -7 1139.51   70.38
   3   0  -8    1.49    4.71
  -3   0  -8    2.31    2.26
  -3   0  -8    2.67    7.74
  -3   0  -9  798.94   42.08
   3   0  -9  847.52   49.77
  -3   0  -9  765.00   54.97
  -3   0 -10    0.54    2.54
   3   0 -10    1.90    4.95
  -3   0 -10    3.11    6.84
   3   0 -11  169.87   18.00
  -3   0 -11  145.44   10.98
   3   0 -12    4.90    7.38
  -3   0 -12   -1.38    3.55
  -3   0 -13   98.91   10.03
  -3   0 -13  127.68   10.32
   3   0 -13  112.43   17.00
  -3   0 -14   -3.83    4.84
   3   0 -14    1.55    7.91
  -3   0 -14   -0.49    3.55
   3   0 -15  656.00   51.34
  -3   0 -15  649.26   39.02
  -3   0 -15  705.30   39.07
   3   0 -16   -1.87    8.75
  -3   0 -16    2.76    4.39
  -3   0 -16    0.50    4.41
  -3   0 -17  411.83   26.40
   3   0 -17  414.84   40.59
  -3   0 -17  384.55   26.03
   3   0 -18   -1.99    9.32
  -3   0 -18   -0.53    4.77
  -3   0 -18   -2.19    4.79
  -3   0 -18    5.95    4.33
  -3   0 -19    4.19    4.92
  -3   0 -19    6.94    4.05
   3   0 -20   -1.60    5.23
  -3   0 -20    6.95    4.49
  -3   0 -20    0.39    3.32
  -3   0 -21   11.80    5.31
   3   0 -21    8.62    5.22
  -3   0 -21    8.41    3.66
  -3   0 -22   -1.96    4.77
   3   0 -22   -5.26    5.15
  -3   0 -23   55.92    6.40
   3   0 -23   36.76    5.64
  -4   0   0 1411.83   73.74
  -4   0   1    0.44    3.21
  -4   0  -1    2.50    3.00
  -4   0  -2  586.56   34.18
  -4   0  -3    1.51    3.52
  -4   0  -4 2185.56  125.99
  -4   0  -4 2300.41  117.09
  -4   0  -5    1.33    7.57
  -4   0  -5   -1.85    4.02
  -4   0  -6 1402.31   74.34
  -4   0  -6 1234.13   81.25
  -4   0  -7    3.05    4.51
  -4   0  -7    1.45    7.37
  -4   0  -7    3.61    2.45
  -4   0  -8  311.88   17.90
  -4   0  -8  277.65   29.39
   4   0  -9   -5.58    5.29
  -4   0  -9   -1.52    2.70
  -4   0  -9   -1.63    7.67
   4   0 -10   36.05    9.31
  -4   0 -10   29.81   11.59
  -4   0 -10   36.18    4.96
   4   0 -11   -1.15    6.13
  -4   0 -11   -0.32    2.88
  -4   0 -12  216.38   15.29
   4   0 -12  277.40   25.22
   4   0 -13    8.63    7.50
  -4   0 -13    0.39    3.35
  -4   0 -13   -1.43    3.75
  -4   0 -14  510.20   32.28
   4   0 -14  577.39   44.45
  -4   0 -14  558.68   32.02
   4   0 -15   -5.25    7.96
  -4   0 -15   -4.20    5.31
  -4   0 -15    0.56    4.07
  -4   0 -16   40.55    6.45
  -4   0 -16   43.87    7.59
  -4   0 -16   38.22    7.18
   4   0 -16   50.79   14.81
  -4   0 -17    6.05    4.40
   4   0 -17    3.92    9.98
  -4   0 -17    4.16    4.78
  -4   0 -17   -2.06    5.22
  -4   0 -18   28.70    6.69
  -4   0 -18   37.67    7.45
   4   0 -18   43.25   13.69
  -4   0 -18   29.79    5.85
  -4   0 -19    1.60    4.32
  -4   0 -19   -1.02    5.07
  -4   0 -19   -1.72    3.63
  -4   0 -20    5.34    4.57
  -4   0 -20    7.54    3.70
   4   0 -21   -3.71    5.39
  -4   0 -21    1.50    3.25
  -4   0 -21   -4.82    5.01
  -4   0 -22  188.52   13.86
   4   0 -22  175.47   13.64
  -4   0 -23    1.19    3.06
   4   0 -23    3.60    3.27
  -5   0   0   -1.05    3.81
  -5   0   1 3118.06  156.43
  -5   0  -1 3040.53  156.03
  -5   0  -2   -1.66    3.56
  -5   0  -3 1763.48   93.50
  -5   0  -4   -0.65    4.24
  -5   0  -5  626.95   38.19
  -5   0  -5  550.75   44.89
  -5   0  -6    4.77    8.29
  -5   0  -6    0.78    4.78
  -5   0  -6    1.20    2.23
  -5   0  -7 3501.00  199.98
  -5   0  -7 3716.55  182.62
  -5   0  -7 3821.29  191.48
  -5   0  -8   -1.74    8.39
  -5   0  -8    0.97    2.63
  -5   0  -9  487.29   26.95
  -5   0  -9  436.47   40.78
  -5   0 -10    0.60    2.67
   5   0 -10    2.27    6.05
  -5   0 -10   -1.96    9.46
  -5   0 -11   60.95    6.75
  -5   0 -11   43.61   14.69
  -5   0 -12    0.93    3.51
  -5   0 -12   -1.10    3.24
   5   0 -12    1.36    7.45
  -5   0 -13  695.71   41.87
  -5   0 -13  765.19   40.94
   5   0 -13  700.72   52.31
  -5   0 -13  759.38   41.25
  -5   0 -14    3.88    4.50
  -5   0 -14   -0.42    3.39
  -5   0 -15  141.55   12.34
  -5   0 -15  132.50   11.41
   5   0 -15  133.68   20.55
  -5   0 -15  117.31   12.31
  -5   0 -16    6.04    4.33
   5   0 -16   -1.89    9.37
  -5   0 -16   -0.99    4.82
  -5   0 -16    2.47    4.61
  -5   0 -17  279.16   18.69
  -5   0 -17  282.66   19.49
  -5   0 -17  255.52   19.84
  -5   0 -18   -1.81    4.86
   5   0 -18    3.86    9.32
  -5   0 -18    2.07    4.92
  -5   0 -18   -3.66    4.00
  -5   0 -19   21.09    5.75
  -5   0 -19   19.01    4.73
  -5   0 -19   28.26    6.64
  -5   0 -20    2.83    4.27
  -5   0 -20   -0.94    4.52
  -5   0 -20    5.10    3.69
   5   0 -21  272.81   19.36
  -5   0 -21  259.81   16.96
   5   0 -22    3.65    4.70
  -5   0 -22    6.30    4.72
   5   0 -23   54.00    6.09
  -6   0   0 9999.00  492.81
  -6   0   1    0.67    4.22
  -6   0  -1    1.96    4.28
  -6   0   2  151.72   14.55
  -6   0  -2  129.17   13.10
  -6   0  -3    2.16    3.93
  -6   0  -4 1462.58   80.87
  -6   0  -5    1.28    2.23
  -6   0  -5    0.82    4.82
  -6   0  -6 1081.79   61.12
  -6   0  -6 1002.53   52.30
  -6   0  -6 1021.88   70.11
  -6   0  -7    1.88    9.30
  -6   0  -7   -0.96    5.23
  -6   0  -7   -0.25    2.97
  -6   0  -8 4747.05  235.72
  -6   0  -8 4989.44  246.76
  -6   0  -8 4825.66  257.61
  -6   0  -9    2.05    9.35
  -6   0  -9    0.88    2.98
  -6   0 -10   67.38   17.50
  -6   0 -10   51.47    5.97
  -6   0 -11    3.97    2.69
  -6   0 -11   -0.46    3.73
   6   0 -11   -1.34    6.48
  -6   0 -11   -6.87   11.35
  -6   0 -11   -1.41    3.54
  -6   0 -12  710.17   42.61
  -6   0 -12  747.62   41.43
  -6   0 -12  812.27   41.95
   6   0 -12  709.53   52.28
  -6   0 -13    3.34    3.68
   6   0 -13    6.30    9.49
  -6   0 -13   -0.42    4.40
  -6   0 -13    3.27    4.34
  -6   0 -14  488.44   29.96
  -6   0 -14  525.19   30.00
  -6   0 -14  501.67   31.43
   6   0 -14  451.27   41.00
  -6   0 -15   -1.92    4.83
  -6   0 -15   -2.49    4.95
  -6   0 -15    4.17    3.73
   6   0 -15    5.43    8.23
  -6   0 -16  749.24   44.11
  -6   0 -16  781.97   43.08
   6   0 -16  623.47   55.07
  -6   0 -16  742.22   42.05
   6   0 -17    1.92    8.19
  -6   0 -17    5.15    5.53
  -6   0 -17    6.15    4.66
  -6   0 -17   -1.54    5.02
  -6   0 -18   29.30    7.26
  -6   0 -18   21.32    6.39
  -6   0 -18   25.32    5.50
  -6   0 -19    3.40    5.12
  -6   0 -19    3.88    4.13
  -6   0 -19    3.70    3.60
  -6   0 -20  161.43   12.74
  -6   0 -20  134.11   10.87
  -6   0 -20  131.91   12.25
  -6   0 -21   18.30    6.00
   6   0 -21   10.37    5.93
   6   0 -22  232.73   15.72
  -7   0   0    4.75    4.23
  -7   0  -1 1804.34   96.82
  -7   0   1 1765.32   96.72
  -7   0  -2    0.81    4.11
  -7   0   2   -0.83    4.62
  -7   0  -2    0.83    2.02
  -7   0  -3  131.33    9.27
  -7   0   3  159.85   16.23
  -7   0  -3  143.16   14.92
  -7   0  -4   -0.23    2.22
  -7   0  -4    0.89    4.42
  -7   0  -4   -1.88    9.81
  -7   0  -5 1182.26   67.61
  -7   0  -5 1138.87   58.78
  -7   0  -6    1.56    2.65
  -7   0  -6    1.01    5.24
  -7   0  -7 2169.97  108.79
  -7   0  -7 2175.66  119.16
  -7   0  -7 2150.12  131.92
  -7   0  -8    2.17   10.20
  -7   0  -8   -2.40    3.19
  -7   0  -8   -1.16    6.05
  -7   0  -9  772.00   62.22
  -7   0  -9  784.85   52.91
  -7   0  -9  791.86   42.56
  -7   0 -10    1.76    3.13
  -7   0 -10    2.40    9.45
  -7   0 -10    1.48    2.69
  -7   0 -10    0.46    3.33
  -7   0 -11   85.35    9.42
  -7   0 -11   93.15    8.81
  -7   0 -11   81.51    8.45
   7   0 -11  101.83   16.28
  -7   0 -12   -1.62    4.25
   7   0 -12    4.64    8.44
  -7   0 -12   -1.68    3.14
  -7   0 -12    1.65    4.25
  -7   0 -13  702.30   37.57
  -7   0 -13  625.17   38.66
  -7   0 -13  635.19   37.21
   7   0 -13  605.85   48.83
   7   0 -14   -3.50    9.55
  -7   0 -14    8.38    4.77
  -7   0 -14   -2.82    4.94
  -7   0 -14   -0.62    5.00
  -7   0 -15  670.95   38.47
  -7   0 -15  692.76   40.74
   7   0 -15  548.81   49.84
  -7   0 -15  687.90   38.96
  -7   0 -16   -0.67    5.21
   7   0 -16  -15.04   15.42
  -7   0 -16    1.93    4.08
  -7   0 -16    2.54    5.03
  -7   0 -17   44.91    7.18
  -7   0 -17   54.37    7.88
   7   0 -17   31.92   12.48
  -7   0 -17   50.81    8.83
  -7   0 -18   -4.45    4.87
  -7   0 -18   -2.51    5.00
  -7   0 -18   -1.33    3.77
  -7   0 -19   19.36    6.16
  -7   0 -19   19.44    5.59
  -7   0 -19   21.45    4.92
  -7   0 -20   -2.50    5.00
  -7   0 -20    9.53    4.82
  -7   0 -21  268.12   17.54
   7   0 -22    4.56    3.52
  -8   0   0   12.29    6.48
  -8   0  -1   -1.89    5.59
  -8   0  -1    1.20    2.41
  -8   0   1    4.78    5.32
  -8   0  -2   68.35    6.22
  -8   0   2   63.95   10.65
  -8   0  -2   83.51   11.84
  -8   0   3    2.01    4.86
  -8   0  -3    1.00    4.96
  -8   0  -3    0.26    2.51
  -8   0  -3    5.85   10.65
  -8   0  -4  763.52   49.42
  -8   0  -4  780.18   59.71
  -8   0  -4  752.58   40.33
  -8   0   4  783.87   49.82
  -8   0  -5    4.22   11.27
  -8   0  -5    7.53    6.93
  -8   0  -6  139.92   16.89
  -8   0  -7    8.49    6.90
  -8   0  -7   -2.18    3.25
  -8   0  -8  498.67   29.00
  -8   0  -8  529.70   39.39
  -8   0  -8  560.54   49.50
  -8   0  -9    3.08    2.90
  -8   0  -9   -4.13    7.00
  -8   0  -9   -1.43    3.23
  -8   0  -9    2.51   10.67
  -8   0  -9   -2.80    3.76
  -8   0 -10  167.61   12.92
  -8   0 -10  187.40   13.53
  -8   0 -10  177.02   14.24
  -8   0 -10  161.30   12.98
  -8   0 -11   -0.43    3.13
  -8   0 -11    1.64    3.85
  -8   0 -11    3.80    4.19
  -8   0 -11    1.48    3.19
  -8   0 -11   -5.46   12.42
  -8   0 -12   88.72    8.99
  -8   0 -12   93.02    9.58
  -8   0 -12   99.82   10.29
   8   0 -12  136.19   19.99
  -8   0 -12  123.22   11.97
  -8   0 -13    2.12    3.35
   8   0 -13    5.15    8.73
  -8   0 -13    1.86    5.15
  -8   0 -13    3.25    5.12
  -8   0 -13    1.41    3.71
  -8   0 -14  240.64   17.89
   8   0 -14  200.52   26.69
  -8   0 -14  259.63   19.45
  -8   0 -14  240.26   17.46
  -8   0 -15    4.75    5.57
   8   0 -15    7.34    9.34
  -8   0 -15   -1.48    4.05
  -8   0 -15    1.00    5.13
   8   0 -16   29.61   11.47
  -8   0 -16   32.79    6.73
  -8   0 -16   37.59    8.16
  -8   0 -16   41.81    6.82
  -8   0 -17    3.99    5.72
  -8   0 -17   -0.50    4.51
  -8   0 -17    5.10    4.29
  -8   0 -18  258.17   19.25
  -8   0 -18  225.13   17.08
  -8   0 -19   -1.12    4.89
  -8   0 -19    2.61    4.31
  -8   0 -20   37.79    6.90
  -8   0 -21    1.65    3.44
  -9   0   0    3.10    2.42
  -9   0   0   -6.80   10.95
  -9   0   0   -2.23    6.08
  -9   0  -1  530.60   38.28
  -9   0   1  540.92   38.59
  -9   0  -1  525.55   29.23
  -9   0  -1  522.43   45.01
  -9   0  -2   -5.83   12.10
  -9   0  -2   -1.15    3.07
  -9   0  -2   -1.13    6.44
  -9   0   2    3.39    6.30
  -9   0  -3 1912.08   98.30
  -9   0  -3 1941.99  109.34
  -9   0   3 1935.83  109.22
  -9   0  -3 2292.60  123.06
  -9   0   4    9.57    7.20
  -9   0  -4   -2.40    6.54
  -9   0  -4    3.98    2.94
  -9   0  -4    2.15   10.39
  -9   0   4    0.95    5.10
  -9   0  -5 2680.76  146.04
  -9   0   5 2682.81  146.27
  -9   0  -5 2716.37  159.40
  -9   0  -6    2.57    7.17
  -9   0  -6   -4.75   10.10
  -9   0  -7  134.73   18.24
  -9   0  -8    0.82    3.22
  -9   0  -8    0.49    3.40
  -9   0  -8   -1.21    3.27
  -9   0  -8    2.85    6.68
  -9   0  -9  767.73   42.30
  -9   0  -9  752.19   53.86
  -9   0  -9  919.12   69.33
  -9   0  -9  738.33   42.19
  -9   0  -9  767.14   43.54
  -9   0 -10    1.11    4.45
  -9   0 -10   -0.41    3.51
  -9   0 -10    5.67   12.07
  -9   0 -10   -1.24    4.25
  -9   0 -10    2.22    3.64
  -9   0 -11  610.81   37.35
  -9   0 -11  700.10   39.51
  -9   0 -11  672.48   37.63
  -9   0 -11  636.76   36.96
  -9   0 -12    1.21    3.52
  -9   0 -12    5.98    5.10
  -9   0 -12    3.36    4.20
  -9   0 -12    6.90    5.93
   9   0 -12    1.73    8.12
  -9   0 -13  382.64   24.99
  -9   0 -13  327.96   22.39
   9   0 -13  305.49   33.21
  -9   0 -13  366.67   23.13
  -9   0 -13  324.60   21.27
   9   0 -14   -1.81    7.44
  -9   0 -14   -0.50    3.81
  -9   0 -14    1.41    3.32
  -9   0 -14   -0.99    5.48
  -9   0 -14    9.61    6.72
  -9   0 -15   63.14   10.19
  -9   0 -15   72.32    8.58
  -9   0 -15   58.98    8.35
   9   0 -15   47.44   13.15
  -9   0 -16    4.45    4.79
  -9   0 -16   13.07    6.70
  -9   0 -17  683.01   41.41
  -9   0 -18    6.73    5.84
  -9   0 -19   24.00    6.67
  -9   0 -20   -1.73    4.15
  -9   0 -21   16.11    3.91
 -10   0   0  723.73   51.93
 -10   0   0  642.28   45.77
 -10   0   0  617.32   35.06
 -10   0  -1   -1.87    9.27
 -10   0  -1    1.30    7.95
 -10   0   1    2.60    6.10
 -10   0  -1    0.33    3.00
 -10   0   1    1.57    7.97
 -10   0  -2  555.60   46.51
 -10   0  -2  507.20   38.56
 -10   0  -2  491.42   28.24
 -10   0   2  483.78   39.05
 -10   0   2  464.66   37.85
 -10   0   3   -1.18    8.36
 -10   0  -3    2.13   10.86
 -10   0  -3   -0.35    3.38
 -10   0  -3   -4.06    7.85
 -10   0  -4 5040.29  265.46
 -10   0  -4 5047.80  252.09
 -10   0  -4 5855.59  280.74
 -10   0   4 5053.80  265.43
 -10   0  -5    4.69    3.66
 -10   0  -5   -1.40    5.97
 -10   0   5   -1.40    7.28
 -10   0  -5    2.40   10.92
 -10   0   6   32.13    9.50
 -10   0  -6   21.78    9.01
 -10   0  -6   40.40   15.53
 -10   0  -6   20.94    5.26
 -10   0  -6   39.81    6.27
 -10   0  -7    0.45    3.61
 -10   0  -7   -4.56    8.47
 -10   0   7   -7.67    8.72
 -10   0  -7    2.65   13.49
 -10   0  -8  560.54   43.34
 -10   0  -8  522.94   31.38
 -10   0  -9   -1.64    7.47
 -10   0  -9    4.56    4.90
 -10   0  -9   -0.45    4.06
 -10   0 -10  728.82   41.88
 -10   0 -10  765.53   43.94
 -10   0 -10  766.50   67.66
 -10   0 -11    4.93    4.25
 -10   0 -11   18.60   14.11
 -10   0 -11    6.36    5.18
 -10   0 -12 1285.87   70.73
 -10   0 -12 1414.38   74.35
  10   0 -12 1463.65   88.67
 -10   0 -13   -0.69    5.28
 -10   0 -13    3.29    3.86
  10   0 -13   -1.82    8.01
 -10   0 -14   40.59    5.88
 -10   0 -14   44.31    8.67
  10   0 -14   23.62   10.30
  10   0 -15    1.79    7.34
 -10   0 -15   -2.11    6.35
 -10   0 -16  312.32   23.25
 -10   0 -17   15.39    7.04
 -10   0 -18  161.56   14.81
 -10   0 -19   -2.48    4.80
 -10   0 -20   96.58    9.47
 -10   0 -21   -0.95    2.50
 -11   0   0    1.12    3.49
 -11   0   0   -5.23    9.09
 -11   0   0    2.44    4.20
 -11   0   0    1.49    9.73
 -11   0   1   92.84    8.99
 -11   0  -1  105.83   10.27
 -11   0  -1  127.30   18.54
 -11   0   1   76.89   15.43
 -11   0   1   77.48   15.39
 -11   0  -1   96.20    9.13
 -11   0  -1   89.76   17.72
 -11   0   2   -2.99    8.16
 -11   0  -2    3.44    4.03
 -11   0  -2   -2.06    9.94
 -11   0  -2    2.71    3.49
 -11   0  -3 1329.85   73.97
 -11   0  -3 1439.44   73.16
 -11   0   3 1398.64   86.13
 -11   0  -3 1431.29   86.79
 -11   0  -3 1356.68   74.02
 -11   0  -3 1624.09   96.76
 -11   0  -4   -2.36   10.41
 -11   0  -4    0.52    3.99
 -11   0  -4   -1.56    7.53
 -11   0   4    1.52    7.75
 -11   0  -4   -0.49    4.53
 -11   0   5  292.02   30.42
 -11   0  -5  373.96   40.43
 -11   0  -5  330.30   31.83
 -11   0  -5  338.92   22.77
 -11   0  -6    4.88    6.67
 -11   0  -6    5.29   11.66
 -11   0  -6    1.09    4.07
 -11   0   6    1.60    7.04
 -11   0  -6   -1.49    4.51
 -11   0   7   16.58    8.94
 -11   0  -7   23.58   10.57
 -11   0  -7   30.22    6.64
 -11   0  -7   33.42   15.58
 -11   0  -7   27.29    6.21
 -11   0  -8    2.93   13.32
 -11   0  -8   -6.89   10.91
 -11   0   8    3.46    8.11
 -11   0  -8    1.49    4.29
 -11   0   9   70.58   15.53
 -11   0  -9   73.15    9.00
 -11   0  -9   72.85   16.43
 -11   0 -10    1.47    4.14
 -11   0 -10    1.31    5.20
 -11   0  10   -1.89   10.29
 -11   0  11 1070.44   78.10
 -11   0 -11 1241.94   66.34
 -11   0 -11 1164.88   63.23
 -11   0 -12    4.91    5.81
 -11   0 -12    0.46    4.11
  11   0 -12   -1.86    7.90
 -11   0  12   -2.00    9.67
 -11   0 -13   62.46    7.57
  11   0 -13   54.97   14.39
 -11   0 -13   47.77    9.02
 -11   0  13   42.64   14.11
 -11   0 -14    6.09    3.81
  11   0 -14    1.79    7.63
 -11   0 -14    3.55    6.47
 -11   0  14   -2.03   11.29
 -11   0 -15   23.67    7.55
 -11   0 -15   22.04    4.51
 -11   0 -16    0.66    5.73
 -11   0 -17   80.64   10.86
 -11   0 -18    4.81    5.41
 -11   0 -19  115.65   10.96
 -11   0 -20    0.65    3.06
 -12   0   0  694.81   40.33
 -12   0   0  793.62   55.14
 -12   0   0  710.35   54.55
 -12   0   0  734.75   41.59
 -12   0  -1    3.73    4.20
 -12   0   1    0.51    4.04
 -12   0  -1    4.68    4.43
 -12   0   1    1.26    3.54
 -12   0   1   15.13    8.34
 -12   0  -1   -1.94    9.62
 -12   0  -1    4.30    4.18
 -12   0  -1    6.82    7.00
 -12   0   1    3.14    6.43
 -12   0   2  172.26   13.64
 -12   0  -2  147.38   24.16
 -12   0   2  171.76   22.74
 -12   0  -2  170.73   14.67
 -12   0   2  192.57   14.81
 -12   0  -2  174.67   14.86
 -12   0  -2  169.70   23.04
 -12   0  -2  185.34   14.31
 -12   0  -3    5.65    4.72
 -12   0  -3   -0.44    4.89
 -12   0  -3  -13.96   13.02
 -12   0   3    5.07    9.02
 -12   0   3    0.97    3.77
 -12   0  -3    3.17    4.38
 -12   0  -3    2.27   10.95
 -12   0  -4   70.43   17.84
 -12   0  -4   61.01   14.21
 -12   0  -4   39.80    7.34
 -12   0   4   39.20   12.18
 -12   0   4   57.03    7.39
 -12   0  -4   42.70    7.64
 -12   0  -5   -5.29    8.97
 -12   0  -5    5.32    4.85
 -12   0   5   -3.46    7.87
 -12   0  -5    2.58    9.28
 -12   0  -6   79.29   20.48
 -12   0  -6   84.39   10.30
 -12   0  -6   61.27   15.76
 -12   0   6   62.88   14.65
 -12   0  -7    1.07    4.38
 -12   0  -7    2.88   11.81
 -12   0  -7    5.52    9.60
 -12   0  -7   -1.25    4.67
 -12   0   7   -3.58    8.14
 -12   0  -8  785.07   68.37
 -12   0  -8  763.52   43.44
 -12   0  -8  708.10   56.60
 -12   0   8  720.36   55.98
 -12   0  -8  760.60   44.72
 -12   0  -9   14.78    5.24
 -12   0  -9    3.79   10.57
 -12   0   9  -13.20   12.14
 -12   0  -9   -6.23   13.72
 -12   0  10  228.22   29.90
 -12   0 -10  305.40   20.48
 -12   0  11   -3.94    9.51
 -12   0 -11    2.50    4.79
 -12   0 -11    2.85    6.01
 -12   0  12    1.98    9.34
 -12   0 -12   18.69    7.31
 -12   0 -12   25.47    5.98
  12   0 -12    7.49    8.81
  12   0 -13    1.81    7.71
 -12   0 -13   -4.32    4.31
 -12   0 -13    2.87    6.10
 -12   0 -14  213.87   18.89
 -12   0 -14  239.41   15.93
 -12   0 -15    0.67    5.99
 -12   0 -15   -1.54    3.24
 -12   0 -16   58.33    9.01
  12   0 -16   35.57    5.36
 -12   0 -17    1.11    5.38
 -12   0 -18   40.05    7.17
 -12   0 -19   -4.82    3.97
 -13   0   0    1.88    9.32
 -13   0   0    1.42    4.16
 -13   0   0   -1.74    7.16
 -13   0   0    0.54    4.43
 -13   0  -1  258.52   17.90
 -13   0   1  249.52   18.53
 -13   0  -1  189.97   27.15
 -13   0   1  255.99   17.63
 -13   0  -1  223.29   17.91
 -13   0  -1  243.86   28.96
 -13   0   1  258.61   29.02
 -13   0   2   -1.86    8.19
 -13   0  -2    1.94    4.20
 -13   0   2   -1.55    4.69
 -13   0  -2   -1.78    4.93
 -13   0  -2    4.24   10.50
 -13   0   2    5.08    3.93
 -13   0  -2    1.92    8.18
 -13   0  -2    1.11    4.88
 -13   0  -3   20.65   13.85
 -13   0   3   23.38    5.58
 -13   0   3    7.44    8.79
 -13   0  -3   17.88    6.12
 -13   0  -3   26.87   10.96
 -13   0   3   24.17    5.97
 -13   0  -3   22.66    6.28
 -13   0  -4    2.45   10.07
 -13   0  -4    0.56    5.20
 -13   0   4    4.75    4.32
 -13   0  -4  -11.50   10.23
 -13   0   4   -3.73    9.26
 -13   0  -4    0.63    5.04
 -13   0  -5   55.44    8.57
 -13   0  -5   68.04    9.62
 -13   0   5   43.20   13.95
 -13   0  -5   47.14   17.07
 -13   0  -5   46.38   13.99
 -13   0   6   -1.89    9.39
 -13   0  -6    3.91    9.18
 -13   0  -6    5.53   12.58
 -13   0  -6    6.57    5.80
 -13   0   7  279.99   32.18
 -13   0  -7  307.62   33.59
 -13   0  -7  318.79   22.79
 -13   0  -7  368.12   42.88
 -13   0  -7  274.11   20.97
 -13   0  -8    1.68    4.26
 -13   0   8   -1.93   11.63
 -13   0  -8   -0.69    5.17
 -13   0  -8    1.98    9.80
 -13   0  -8   -9.01   16.04
 -13   0  -9  158.51   23.63
 -13   0   9  167.56   24.01
 -13   0  -9  194.92   15.41
 -13   0  -9  174.40   16.40
 -13   0 -10    0.53    4.77
 -13   0  10   -1.96   10.46
 -13   0 -11  310.75   20.90
 -13   0  11  258.17   31.64
 -13   0  12   -1.93    9.06
 -13   0 -12    2.81    4.40
 -13   0 -12   -0.72    6.12
 -13   0 -13  121.49   11.11
 -13   0 -13  133.23   14.05
 -13   0 -14   -0.71    3.68
 -13   0 -14    7.98    5.56
 -13   0 -15  133.21   12.94
 -13   0 -15  102.51    8.62
 -13   0 -16   -3.35    5.61
  13   0 -16   -1.38    2.90
 -13   0 -17    7.73    5.05
 -13   0 -18   -1.18    3.82
 -14   0   0   12.36    5.33
 -14   0   0   26.61   11.67
 -14   0   0   18.33    6.14
 -14   0  -1    0.52    4.97
 -14   0   1   -3.04    4.99
 -14   0  -1   -1.89    7.77
 -14   0  -1  -10.32   10.24
 -14   0   1   -0.54    4.74
 -14   0   1    8.09    9.76
 -14   0  -1    1.70    5.11
 -14   0  -2   42.17    7.43
 -14   0  -2   39.24   13.21
 -14   0  -2   18.77   12.69
 -14   0   2   37.97   12.58
 -14   0  -2   33.28    7.80
 -14   0   2   45.23    7.41
 -14   0   2   34.52    7.40
 -14   0  -3    2.90    5.60
 -14   0   3   -0.49    5.00
 -14   0  -3   -0.64    4.72
 -14   0   3   -0.50    4.25
 -14   0  -3   -6.79    9.63
 -14   0  -3   -2.05    8.08
 -14   0   3   -3.99    9.36
 -14   0  -4  722.13   41.43
 -14   0   4  674.81   39.09
 -14   0   4  706.41   54.73
 -14   0   4  645.60   38.60
 -14   0  -4  626.95   53.39
 -14   0  -4  670.92   40.20
 -14   0  -4  693.68   59.09
 -14   0  -5    1.17    5.28
 -14   0  -5    7.73   12.44
 -14   0  -5  -12.36   11.95
 -14   0   5   -1.99   10.39
 -14   0  -5    4.04    4.90
 -14   0   5   -1.48    5.06
 -14   0  -6   50.14    8.98
 -14   0   6   49.78   15.40
 -14   0  -6   62.30   18.40
 -14   0  -6   49.65   14.91
 -14   0  -7   10.27    8.43
 -14   0  -7   -2.10    6.05
 -14   0   7   -1.99   10.38
 -14   0  -8   77.41   18.03
 -14   0  -8   82.99   11.21
 -14   0  -8   87.01   10.10
 -14   0   8   39.73   14.77
 -14   0  -9   -4.30    6.32
 -14   0  -9  -18.09   15.00
 -14   0   9    1.98    9.27
 -14   0  -9   -0.55    4.95
 -14   0  10  523.88   47.47
 -14   0 -10  593.28   34.85
 -14   0 -11    0.98    4.79
 -14   0 -12  100.28   10.05
 -14   0 -13   -3.12    4.16
 -14   0 -13   -1.30    6.21
 -14   0 -14   12.11    6.50
 -14   0 -14    3.22    3.58
 -14   0 -15   -7.67    5.76
 -14   0 -16    1.43    4.57
 -14   0 -17    1.97    3.79
 -15   0   0    0.56    5.36
 -15   0   0  -10.74   12.93
 -15   0   0   -1.08    6.22
 -15   0   1  723.14   40.06
 -15   0  -1  592.28   53.62
 -15   0   1  668.10   39.55
 -15   0  -1  688.54   39.95
 -15   0  -1  637.53   39.66
 -15   0   1  662.46   55.25
 -15   0  -2    2.32    6.14
 -15   0  -2   -8.54   12.15
 -15   0   2    1.57    5.60
 -15   0   2    2.10   12.43
 -15   0   2    2.09    4.54
 -15   0   3 1444.96   75.38
 -15   0   3 1445.67   93.83
 -15   0  -3 1407.32   75.97
 -15   0   3 1362.99   74.55
 -15   0  -3 1423.54   93.43
 -15   0   4    0.93    4.16
 -15   0  -4   -2.12   11.83
 -15   0   4   -2.04    6.21
 -15   0  -4   -0.59    5.74
 -15   0   5 1717.83  109.03
 -15   0  -5 1755.22   92.59
 -15   0  -5 1768.00   93.69
 -15   0  -5 1626.31  109.00
 -15   0   5 1775.39   91.77
 -15   0   6   -8.07    9.74
 -15   0  -6    4.20    9.56
 -15   0   6   -3.49    6.50
 -15   0  -6    4.77    6.26
 -15   0   7   39.93   13.74
 -15   0  -7   44.15    8.99
 -15   0   7   35.54    7.61
 -15   0  -7   18.51   13.76
 -15   0   8   -3.87    5.96
 -15   0  -8   -2.02   12.13
 -15   0  -8    4.85    6.11
 -15   0  -8   -1.11    5.15
 -15   0  -9 1029.66   59.99
 -15   0  -9 1083.42   58.46
 -15   0 -10   -4.06    6.89
 -15   0 -10   -3.00    5.43
 -15   0 -11  767.36   43.21
 -15   0 -12    2.03    4.00
 -15   0 -13  442.64   25.84
 -15   0 -14    3.26    3.10
 -15   0 -14    8.84    5.83
  15   0 -15    1.83    2.69
 -15   0 -15   -0.91    4.50
 -15   0  16    1.28    2.70
 -16   0   0  802.07   46.12
 -16   0   0  820.60   46.51
 -16   0   0  786.02   62.43
 -16   0   1   -2.68    7.14
 -16   0   1    2.09    4.76
 -16   0   1   -8.55   14.39
 -16   0  -1    5.54    5.27
 -16   0   2  748.13   43.00
 -16   0  -2  679.40   58.12
 -16   0  -2  763.38   44.04
 -16   0   2  744.63   59.95
 -16   0   2  782.56   44.01
 -16   0   3   -5.18    6.24
 -16   0   3    6.12    5.06
 -16   0   3  -12.49   15.35
 -16   0  -3    3.40    5.70
 -16   0   4 2365.35  124.43
 -16   0  -4 2238.24  143.21
 -16   0   4 2552.89  126.02
 -16   0  -4 2561.62  126.94
 -16   0   4 2423.04  144.13
 -16   0   5    0.49    5.28
 -16   0  -5   -8.33   12.08
 -16   0   5   -7.99    9.90
 -16   0  -5    5.08    5.86
 -16   0   6  372.83   24.49
 -16   0  -6  384.98   25.52
 -16   0   7    1.87    4.83
 -16   0   8  691.26   39.58
 -16   0   9   -1.31    4.44
 -16   0  -9    1.96    5.45
 -16   0  -9    1.87    5.66
 -16   0 -10  784.72   43.38
 -16   0 -10  777.10   45.14
 -16   0  10  753.81   42.75
 -16   0 -11   10.52    4.69
 -16   0  11    6.61    4.26
 -16   0 -11    4.55    5.76
 -16   0 -12  949.73   49.40
 -16   0  12  896.74   49.35
 -16   0  13   -0.64    3.45
 -16   0 -13    1.98    3.11
 -16   0  14   20.83    4.00
 -17   0   0   -0.50    4.94
 -17   0   1  153.46   13.03
 -17   0  -1  155.42   13.41
 -17   0   1  132.56   12.96
 -17   0   2   -1.99    5.64
 -17   0   2   -4.12    4.20
 -17   0  -2    1.05    5.15
 -17   0   3  774.59   44.73
 -17   0  -3  852.87   46.66
 -17   0   3  834.40   46.39
 -17   0   4   -9.64    6.96
 -17   0   4    0.76    3.56
 -17   0  -4   -3.67    5.03
 -17   0  -5  410.87   26.83
 -17   0   5  425.14   26.51
 -17   0   6   -3.13    4.75
 -17   0  -6    4.04    5.30
 -17   0   7  166.47   13.19
 -17   0   8   -0.41    4.21
 -17   0  -9   96.85   10.15
 -17   0   9  110.74    9.63
 -17   0 -10    3.07    4.28
 -17   0  10    0.71    3.52
 -17   0 -11  614.34   33.89
 -17   0  11  604.43   33.85
 -17   0 -12    1.38    2.95
 -17   0  12   -5.55    3.82
 -17   0  13   58.71    5.82
 -17   0 -13   55.60    5.43
  17   0 -14    2.27    1.95
 -18   0   0   28.01    5.90
 -18   0  -1   -1.35    4.23
 -18   0   1    0.42    4.08
 -18   0   2  115.37   10.19
 -18   0  -2  113.63   10.96
 -18   0   3    2.47    3.52
 -18   0  -3   -0.46    4.53
 -18   0   3   -0.43    4.37
 -18   0   4  106.22   10.09
 -18   0  -4  102.99   10.26
 -18   0   5   -2.06    4.59
 -18   0  -5   -0.89    4.31
 -18   0   6   71.18    7.97
 -18   0  -6   65.36    8.47
 -18   0   7   -1.49    4.07
 -18   0  -7    2.04    4.43
 -18   0   8   24.06    5.18
 -18   0  -9    2.75    3.87
 -18   0   9   -2.58    3.72
 -18   0  10   91.30    8.19
 -18   0 -10   96.86    8.47
 -18   0 -11   -1.26    2.86
 -18   0  11   -0.52    2.76
 -18   0 -12   96.02    7.19
 -19   0   0   -0.35    3.76
 -19   0  -1   51.04    6.71
 -19   0   1   43.15    6.06
 -19   0  -2   -4.09    4.38
 -19   0   2   -2.69    3.34
 -19   0   3   33.28    4.71
 -19   0  -3   48.10    6.58
 -19   0  -4    0.37    3.84
 -19   0  -5    6.07    4.25
 -19   0   6   -3.78    3.56
 -19   0  -6   -4.43    4.00
 -19   0   7   38.01    5.43
 -19   0  -7   44.52    6.01
 -19   0   8   -0.27    2.65
 -19   0   9    6.83    2.81
 -19   0  -9    7.84    3.39
 -19   0 -10    1.05    2.40
 -19   0 -11   76.79    5.81
 -20   0   0   66.26    6.27
 -20   0   1   -1.80    2.63
 -20   0  -1   -0.26    3.09
 -20   0  -2    1.36    2.98
 -20   0   2   -1.88    2.19
 -20   0  -3   -0.27    2.99
 -20   0  -4   42.86    5.34
 -20   0  -5    1.29    2.94
 -20   0  -6    6.76    3.12
 -20   0  -7   -1.97    2.60
 -20   0  -9    0.31    1.77
 -21   0   0   -1.78    1.69
 -21   0  -1    7.78    2.09
 -21   0  -2    0.65    1.76
 -21   0  -3   92.10    6.66
 -21   0  -4    0.16    1.72
 -21   0  -5  106.64    7.17
 -21   0  -6    1.90    1.57
   0   1   0   -0.13    1.18
   0   1  -1 4368.56  215.71
   0   1   1 4500.55  216.14
   0  -1  -2    1.35    1.19
   0   1  -2    1.66    1.70
   0   1  -3   63.79    6.07
   0  -1  -3   70.74    5.37
   0   1  -4   21.61    4.15
   0  -1  -4   22.83    3.61
   0   1  -5  167.59   12.84
   0   1  -5  162.42   14.55
   0  -1  -5  174.46   12.16
   0   1  -6  122.15   11.31
   0   1  -6  101.62   11.82
   0  -1  -6  129.07   10.51
   0   1  -7 4970.70  261.72
   0  -1  -7 5409.88  259.54
   0  -1  -8   28.49    6.56
   0   1  -8   32.58    7.37
   0  -1  -9   10.07    5.07
   0  -1 -10   86.97   11.81
   0  -1 -11  303.64   25.57
   0   1 -11  324.52   27.14
   0   1 -12  136.09   17.42
   0  -1 -12  131.49   16.60
   0  -1 -13  140.71   18.50
   0   1 -13  167.27   20.56
   0   1 -14   18.93    9.70
   0  -1 -14   10.05    8.67
   0   1 -14   16.31    4.67
   0   1 -15 1720.36   98.43
   0  -1 -15 1570.27   94.42
   0   1 -15 1500.10   80.75
   0   1 -16   53.27   15.28
   0   1 -16   62.24    7.95
   0   1 -17   28.09   11.98
   0   1 -17   38.03    7.53
   0   1 -18   51.50    8.72
   0   1 -19   42.14    8.43
   0   1 -20   13.70    6.12
   0   1 -21  119.34   11.35
   0  -1 -22   35.56    5.40
   0  -1 -22   34.48    6.85
   0   1 -22   29.88    6.47
   0  -1 -23   56.04    6.98
   0  -1 -23   50.07    4.98
   0   1 -23   63.76    6.99
  -1   1   0 1328.00   65.75
  -1  -1   0 1337.41   65.87
  -1   1  -1   67.31    5.00
  -1  -1  -1   61.48    4.71
  -1   1  -1   65.32    4.76
  -1   1  -2 1606.62   81.35
  -1   1  -2 1689.97   82.99
   1   1   2 1674.54   82.31
  -1   1  -2 1658.46   82.54
  -1  -1  -2 1683.71   82.71
   1   1   3   86.52    6.32
  -1   1  -3   84.70    5.29
  -1   1  -3   87.35    7.47
  -1   1  -4  855.05   42.77
  -1  -1  -4  858.33   41.81
   1   1  -4  757.79   41.44
   1  -1  -4  889.23   41.31
  -1   1  -4  723.80   38.60
   1  -1  -5  128.02   10.15
  -1   1  -5  136.95    7.50
  -1   1  -5  179.90   12.36
   1   1  -5  121.93   10.37
   1   1  -5  116.41   11.04
  -1  -1  -5  162.84   11.30
   1   1  -6 1782.24   93.12
  -1  -1  -6 1803.83   93.56
  -1   1  -6 1723.47   98.42
  -1   1  -6 1800.30   94.45
   1  -1  -6 1898.37   93.21
   1  -1  -7    8.81    3.83
  -1  -1  -7    4.32    3.70
  -1   1  -7   10.76    6.13
  -1  -1  -8  363.03   24.54
   1  -1  -8  350.80   24.05
  -1   1  -8  321.69   27.03
   1  -1  -9   55.59    9.02
  -1  -1  -9   73.72   10.05
  -1   1  -9   64.96   11.90
  -1   1 -10   41.79    9.70
   1  -1 -10   38.04    8.47
  -1  -1 -10   36.68    8.86
   1   1 -11  144.86   16.70
  -1   1 -11  127.41   16.88
   1  -1 -11  149.83   16.03
  -1  -1 -11  121.71   15.26
   1  -1 -12   54.77   11.15
  -1  -1 -12   59.65   11.50
   1   1 -12   45.75   11.34
  -1   1 -12   80.00   13.64
  -1   1 -13  111.55   16.65
   1  -1 -13   81.67   14.18
  -1  -1 -13  117.34   16.15
   1   1 -13   84.57   15.00
   1   1 -14 1318.26   75.04
  -1   1 -14 1228.12   73.46
   1  -1 -14 1232.90   72.03
   1  -1 -15   68.32   14.74
  -1   1 -15   51.41    7.91
  -1   1 -15   60.78    8.15
  -1   1 -15   64.50   15.38
   1   1 -15   72.26   16.05
   1  -1 -16  102.64   18.11
  -1   1 -16   88.96    9.64
   1   1 -16   88.09   18.18
  -1   1 -16   78.18    9.71
  -1   1 -17  104.69   10.83
  -1   1 -17  111.76   11.55
   1   1 -18   16.60   11.40
  -1   1 -18   28.11    6.17
   1   1 -18   24.85    7.26
  -1   1 -18   37.57    7.69
  -1   1 -19   21.35    7.10
   1   1 -19   26.92    7.41
  -1   1 -19   19.82    4.84
   1   1 -20   25.98    6.96
  -1   1 -20   12.39    5.85
  -1   1 -21   23.30    6.38
  -1  -1 -21   33.00    5.72
   1   1 -21   29.58    6.79
  -1  -1 -22  134.00   11.35
   1  -1 -22  106.17    9.28
  -1  -1 -22  107.06    9.35
  -1   1 -22  130.17   11.20
   1  -1 -22  122.57   11.12
   1   1 -22  142.91   11.58
  -1  -1 -23   17.83    4.89
  -1   1 -23   14.61    4.89
   1  -1 -23   15.51    3.05
  -1  -1 -23    9.88    2.91
   1   1 -23   16.72    5.01
   1  -1 -23   13.14    4.61
   2   1   0  164.67   10.58
  -2   1   0  176.36   10.72
  -2  -1   0  173.55   10.95
  -2   1   0  184.06   10.98
  -2  -1  -1   83.83    6.66
  -2   1  -1   82.09    6.55
  -2   1  -2  704.48   39.16
  -2  -1  -2  775.25   39.49
  -2   1  -3  925.50   50.39
  -2  -1  -3  976.57   50.59
  -2   1  -4  101.91    9.39
  -2  -1  -4   89.78    8.68
   2   1   4  102.33    7.19
  -2   1  -5  955.95   52.52
  -2   1  -6  195.35   16.69
   2  -1  -6  257.20   16.71
  -2   1  -7  134.44   16.80
  -2   1  -7  134.96   13.39
   2  -1  -7  142.74   12.26
   2  -1  -8    5.49    4.24
  -2   1  -8    7.04    6.68
  -2  -1  -8    8.21    4.55
  -2  -1  -9   76.87   10.42
  -2   1  -9   59.42   12.50
   2  -1  -9   54.51    9.20
   2   1 -10  261.27   23.08
   2  -1 -10  301.80   23.00
  -2   1 -10  239.73   26.06
   2  -1 -11 1826.70  103.84
  -2   1 -11 1920.15  110.35
   2   1 -11 1955.19  106.36
   2  -1 -12   47.20   10.48
   2   1 -12   42.91   11.60
  -2   1 -13   62.82    7.35
   2  -1 -13   48.91   11.49
  -2   1 -13   74.64   14.13
  -2   1 -13   55.24    7.29
   2   1 -13   42.89   11.72
  -2   1 -14   67.97    8.65
   2   1 -14   96.49   17.04
   2  -1 -14   94.34   16.16
  -2   1 -14   90.91    8.90
   2   1 -15  149.95   21.98
   2  -1 -15  131.37   19.89
  -2   1 -15  119.58   11.39
  -2   1 -15  110.05   11.21
   2   1 -16   42.62   13.38
  -2   1 -16   44.35    7.55
  -2   1 -16   42.56    7.20
   2  -1 -16   32.89   11.66
   2  -1 -17   99.12   18.85
  -2   1 -17  116.30   11.70
  -2   1 -17  129.59   12.37
   2   1 -17   98.14   19.72
  -2   1 -18   44.25    7.70
  -2   1 -18   23.90    7.50
   2   1 -18   33.49   14.19
  -2   1 -18   34.77    5.98
  -2   1 -19  180.19   14.33
  -2   1 -19  156.80   12.47
   2   1 -19  151.90   14.81
  -2   1 -19  184.25   15.34
   2   1 -20   20.65    6.43
  -2   1 -20   16.64    6.00
  -2  -1 -20   25.46    5.34
  -2   1 -21   74.20    9.00
   2  -1 -21   78.82    9.63
  -2  -1 -21   82.27    8.27
   2   1 -21   72.58    9.11
  -2   1 -22   13.01    4.98
   2  -1 -22    9.80    4.92
  -2  -1 -22   10.76    4.84
  -2  -1 -22   13.04    4.04
   2   1 -22   25.57    5.88
   2  -1 -23   -1.29    3.96
  -2   1 -23   -3.80    4.05
  -2  -1 -23   -2.46    2.43
   2   1 -23   -5.03    4.22
  -2  -1 -23   -3.22    4.03
   2  -1 -23   -1.66    2.19
  -3   1   0 1053.60   52.04
  -3   1   0  998.08   50.36
   3   1   0  948.63   50.27
  -3  -1   0  932.99   53.71
  -3  -1   0 1028.27   52.15
  -3  -1  -1  666.51   32.77
  -3   1  -1  625.27   32.20
  -3  -1  -1  566.55   35.95
  -3  -1  -2 4954.22  244.82
  -3  -1  -3   18.26    4.29
  -3  -1  -4  566.99   33.44
  -3  -1  -5  501.69   37.60
   3   1   5  510.49   27.91
  -3  -1  -5  543.28   32.05
  -3  -1  -6 2013.81  114.58
  -3   1  -6 2078.58  107.84
  -3   1  -7  112.53   12.13
  -3   1  -7   76.00   14.54
  -3   1  -8 1082.73   68.69
  -3  -1  -8 1070.89   55.25
  -3   1  -8 1100.21   55.31
   3  -1  -8 1068.52   60.87
  -3  -1  -9  148.73   10.20
   3  -1  -9  148.54   15.00
  -3   1  -9  146.11   10.13
  -3   1  -9  138.40   18.93
   3   1 -10 3622.84  189.85
  -3   1 -10 3657.82  179.91
  -3  -1 -10 3625.03  179.92
   3  -1 -10 3691.27  188.14
  -3   1 -10 3587.87  196.32
  -3  -1 -11  241.38   16.08
  -3   1 -11  291.06   29.04
  -3   1 -11  227.43   15.94
   3  -1 -11  284.66   24.02
   3  -1 -12  474.77   34.50
   3   1 -12  448.90   35.20
  -3   1 -12  406.59   25.00
  -3   1 -13   21.70    5.05
   3  -1 -13   31.46    9.64
   3   1 -13   44.13   11.90
  -3   1 -13   27.10    5.33
  -3   1 -14    5.57    4.12
  -3  -1 -14    9.76    4.54
   3  -1 -14   -1.47    7.32
  -3   1 -14    7.93    4.38
   3   1 -14    4.92    8.56
   3   1 -15   12.66    9.25
  -3   1 -15   22.90    5.95
   3  -1 -15   26.03   10.51
  -3   1 -15   16.84    5.32
   3   1 -16   17.62   12.03
   3  -1 -16   12.21   10.54
  -3   1 -16   12.52    5.27
  -3   1 -16   21.67    4.78
  -3   1 -16   22.97    5.88
   3   1 -17   20.56   12.56
  -3   1 -17   36.62    7.82
  -3   1 -17   45.96    6.43
  -3   1 -17   52.00    7.84
   3  -1 -17   65.29   17.27
  -3   1 -18  520.83   32.38
   3   1 -18  538.36   49.44
  -3   1 -18  622.27   35.23
  -3   1 -18  608.02   34.89
  -3   1 -19   29.64    7.47
  -3   1 -19   32.69    5.69
  -3  -1 -19   32.30    6.81
  -3   1 -19   29.94    6.97
   3   1 -20    0.52    5.41
  -3  -1 -20    3.46    3.87
  -3   1 -20    2.34    3.98
  -3   1 -20   -5.39    5.17
  -3  -1 -21    8.11    4.11
  -3  -1 -21   11.20    5.43
   3  -1 -21   11.39    5.41
   3   1 -21    6.04    5.22
  -3   1 -21    4.00    4.87
  -3  -1 -22    1.15    5.07
  -3   1 -22   -1.91    4.89
   3  -1 -22   -1.20    4.90
  -3  -1 -22    3.07    3.05
   3   1 -22   -0.39    4.75
   3  -1 -23   11.47    4.42
   3   1 -23    7.89    4.12
  -3  -1 -23    3.70    3.91
  -3   1 -23    7.00    3.92
  -4   1   0 3593.72  177.21
   4   1   0 3517.83  177.29
  -4  -1   0 3907.57  180.90
  -4  -1   0 3603.33  185.95
  -4  -1  -1    6.12    8.08
  -4  -1  -1   12.00    3.81
  -4  -1   1   19.30    4.54
  -4  -1   1   18.95    6.16
  -4  -1   2   32.12    4.65
  -4  -1  -2   39.03   11.15
  -4  -1  -2   47.58    6.78
  -4  -1  -3 2044.85  105.92
  -4  -1  -4  491.05   30.77
  -4  -1  -5  486.41   40.68
  -4  -1  -5  590.58   35.19
  -4  -1  -6  858.01   58.45
   4   1   6  853.35   44.50
  -4  -1  -6  857.40   50.38
  -4  -1  -7   48.70   12.49
  -4  -1  -7   36.77    4.08
  -4   1  -7   30.38   10.52
  -4   1  -7   36.86    4.18
  -4  -1  -8  530.36   28.10
  -4   1  -8  496.74   27.97
  -4   1  -8  564.02   43.64
   4  -1  -9    5.94    5.80
  -4  -1  -9    7.19    2.75
   4   1  -9    9.09    7.00
  -4   1  -9    6.61    7.98
  -4   1  -9    7.71    2.99
  -4  -1 -10  204.67   14.05
  -4   1 -10  204.70   14.01
   4   1 -10  271.95   23.37
   4  -1 -10  229.23   20.68
  -4   1 -10  230.71   27.45
  -4  -1 -11 1601.40   84.95
   4  -1 -11 1703.99   94.59
   4   1 -11 1750.55   97.17
  -4   1 -11 1695.92   85.17
  -4   1 -11 1722.70  104.25
  -4   1 -12  669.42   35.97
   4   1 -12  738.67   48.57
  -4   1 -12  572.28   35.92
   4  -1 -12  697.45   46.03
  -4   1 -12  642.69   52.52
   4   1 -13   19.85    9.21
   4  -1 -13   16.27    8.19
  -4   1 -13   21.39    4.96
  -4  -1 -13    8.22    4.18
  -4   1 -13   10.93    4.47
   4   1 -14    8.43    8.59
   4  -1 -14    9.04    8.23
  -4  -1 -14   11.03    4.96
  -4   1 -14    7.81    4.46
  -4   1 -14    9.33    4.88
  -4   1 -14    9.13    3.52
  -4   1 -15   24.63    4.91
  -4   1 -15   18.72    5.43
  -4  -1 -15   24.31    6.02
  -4   1 -15   24.42    5.88
   4  -1 -15   16.49    9.63
   4   1 -15   14.70   10.51
  -4   1 -16  194.25   15.01
  -4  -1 -16  165.99   14.82
   4   1 -16  193.28   26.02
  -4   1 -16  156.91   14.53
   4  -1 -16  174.31   24.69
  -4   1 -16  163.03   13.01
  -4  -1 -17  105.81   11.80
   4   1 -17  121.43   21.75
  -4   1 -17  125.23   10.86
   4  -1 -17  121.17   20.69
  -4   1 -17  129.82   12.83
  -4   1 -17  125.16   12.12
  -4  -1 -18  122.53   11.29
  -4   1 -18   93.14    9.57
   4   1 -18   93.06   19.65
  -4   1 -18  115.53   12.20
  -4   1 -18  104.98   11.34
  -4   1 -19  144.82   11.93
  -4  -1 -19  168.15   13.34
  -4   1 -19  177.21   14.52
  -4   1 -19  174.86   14.64
  -4  -1 -20   19.89    5.09
   4   1 -20   27.52    6.48
  -4   1 -20   31.29    6.33
  -4   1 -20   20.62    6.04
  -4  -1 -21   35.73    6.46
   4  -1 -21   36.36    7.08
  -4  -1 -21   45.80    6.14
  -4   1 -21   38.22    6.73
   4   1 -21   36.87    6.89
  -4  -1 -22   29.80    4.60
  -4  -1 -22   34.81    6.03
   4   1 -22   40.35    6.51
  -4   1 -22   34.59    6.03
   4  -1 -22   37.88    6.45
  -4  -1 -23   -1.15    3.30
   4   1 -23   -4.00    4.01
  -4   1 -23   -0.29    3.48
   4  -1 -23   -4.97    4.07
  -5  -1   0 1310.62   83.24
  -5  -1   0 1484.27   76.45
  -5   1   1 2324.53  118.30
  -5  -1   1 2660.40  124.45
  -5  -1  -1 2571.77  123.97
   5   1   1 2355.36  118.35
  -5  -1   1 2572.33  129.08
  -5  -1  -1 2221.47  133.03
  -5  -1  -2   70.98    8.96
  -5  -1  -2   65.33   15.42
  -5  -1   2   56.56    8.57
  -5  -1  -3  504.91   44.38
  -5  -1  -3  645.13   37.33
  -5  -1  -4 1008.03   57.57
  -5  -1  -5 2489.99  130.44
  -5  -1  -6 1212.14   80.67
  -5  -1  -6 1325.97   71.34
  -5  -1  -6 1204.30   63.13
  -5   1  -6 1286.12   63.31
  -5   1  -7  690.56   50.06
  -5  -1  -7  607.82   32.51
  -5  -1  -7  590.30   48.69
  -5  -1  -7  672.13   41.09
   5   1   7  568.36   32.28
  -5   1  -7  639.07   32.65
  -5   1  -8  403.89   37.97
  -5  -1  -8  410.48   37.81
  -5  -1  -8  391.76   22.51
  -5   1  -8  399.24   22.65
  -5  -1  -9  777.32   41.21
  -5   1  -9  850.08   59.36
  -5   1  -9  760.55   41.11
   5   1 -10  170.41   18.95
   5  -1 -10  174.89   17.82
  -5  -1 -10  127.51   10.10
  -5   1 -10  122.66    9.95
  -5   1 -10  117.96   21.12
  -5   1 -11  824.86   59.24
  -5   1 -11  704.40   38.71
   5   1 -11  815.23   51.53
   5  -1 -11  810.65   49.36
  -5  -1 -12   17.16    4.95
  -5   1 -12   26.46   13.05
  -5   1 -12   11.48    4.29
   5  -1 -12   15.37    9.01
  -5   1 -12   11.89    4.59
   5   1 -12   15.99    9.52
   5  -1 -13  375.44   33.12
  -5  -1 -13  365.46   24.54
   5   1 -13  405.45   35.01
  -5   1 -13  345.15   22.57
  -5   1 -13  382.17   24.32
  -5   1 -13  408.77   23.82
  -5   1 -14  332.43   20.59
  -5   1 -14  315.69   21.30
  -5   1 -14  317.32   21.96
   5   1 -14  326.30   32.66
   5  -1 -14  316.43   31.18
  -5  -1 -14  311.45   22.44
  -5   1 -15  101.09   11.26
  -5  -1 -15   91.81   10.99
   5  -1 -15  108.69   18.66
  -5   1 -15   98.10    9.51
  -5   1 -15  104.64   10.74
   5   1 -15   76.75   17.56
  -5  -1 -16   67.55    8.23
  -5   1 -16   48.75    8.35
   5   1 -16   37.59   14.10
  -5   1 -16   52.13    8.26
  -5   1 -16   53.76    7.11
   5  -1 -16   30.04   13.12
  -5  -1 -16   48.34    8.49
  -5   1 -17  344.53   23.99
   5   1 -17  329.06   36.19
  -5   1 -17  352.52   23.23
  -5   1 -17  310.65   21.34
   5  -1 -17  316.03   33.92
  -5  -1 -17  339.75   23.83
  -5  -1 -17  360.11   22.80
  -5   1 -18   92.59   10.43
  -5   1 -18   89.50   10.86
  -5   1 -18   71.54    8.23
  -5  -1 -18   81.85   10.08
  -5  -1 -18   88.60    9.73
   5   1 -18   95.60   20.57
  -5   1 -19   21.61    4.57
  -5  -1 -19   27.23    5.93
  -5   1 -19   17.45    6.37
  -5   1 -19   28.67    7.05
  -5  -1 -20   41.40    6.31
  -5   1 -20   44.35    7.16
  -5   1 -20   34.02    6.60
   5  -1 -21   99.65   10.16
   5   1 -21  106.67   10.28
  -5  -1 -21   93.76    8.69
  -5  -1 -21   85.62    9.49
  -5   1 -21  105.85   10.13
  -5   1 -21   85.32    9.13
  -5   1 -22   43.55    6.34
   5   1 -22   35.76    6.24
  -5  -1 -22   48.90    5.19
   5  -1 -22   40.95    6.62
  -5  -1 -22   39.32    6.15
  -6  -1   0 2249.44  113.35
  -6  -1   0 1950.27  121.54
  -6  -1  -1 1544.11   82.55
  -6  -1   1 1533.07   89.14
  -6  -1   1 1609.35   83.07
  -6  -1   2  733.34   44.10
  -6  -1   2  738.34   45.13
  -6  -1  -2  725.45   43.60
  -6  -1  -2  640.41   53.10
  -6  -1  -3  144.05   13.58
  -6  -1   3  108.13    9.86
  -6  -1  -4 1592.31   85.32
  -6  -1  -4 1433.54   95.66
  -6   1  -5   61.84    5.52
  -6  -1  -5   48.74    5.23
  -6  -1  -5   62.26    9.85
  -6   1  -6  956.05   50.27
  -6  -1  -6 1019.60   59.21
  -6  -1  -6  983.75   50.36
  -6  -1  -7 5214.94  254.88
  -6   1  -7 4926.84  244.21
  -6  -1  -7 5003.18  244.24
  -6  -1  -7 4597.25  265.16
  -6   1  -7 5137.51  266.84
  -6   1  -8  862.39   45.17
  -6   1  -8  967.63   65.95
  -6  -1  -8  867.20   65.12
  -6  -1  -8  897.82   55.20
  -6  -1  -8  826.91   45.07
  -6   1  -9   39.40    5.40
  -6  -1  -9   38.86   13.41
  -6   1  -9   39.43   14.53
  -6  -1  -9   55.20    5.88
   6  -1 -10  713.23   45.94
  -6   1 -10  624.92   35.57
  -6   1 -10  699.67   55.71
   6   1 -11  238.89   24.68
  -6  -1 -11  208.33   14.73
  -6   1 -11  207.13   15.40
  -6  -1 -11  194.61   15.86
  -6   1 -11  235.09   15.22
   6  -1 -11  177.93   21.39
   6   1 -12  569.66   42.56
  -6  -1 -12  508.68   29.13
  -6   1 -12  482.71   47.42
  -6   1 -12  517.91   29.36
   6  -1 -12  575.10   40.64
  -6   1 -12  472.20   28.61
  -6   1 -12  468.76   29.75
  -6  -1 -12  473.89   30.44
  -6   1 -13   54.89    8.16
  -6   1 -13   67.84    8.04
  -6  -1 -13   55.91    7.19
  -6   1 -13   72.80   18.94
  -6  -1 -13   52.36    8.07
   6   1 -13   61.63   14.34
   6  -1 -13   51.72   12.90
  -6   1 -13   63.36    7.24
   6  -1 -14   85.97    9.14
   6   1 -14  102.01   19.53
  -6  -1 -14   78.55    8.95
  -6  -1 -14   98.52   10.91
  -6   1 -14   87.37   10.28
   6  -1 -14   87.65   16.43
  -6   1 -14   80.63    8.72
  -6   1 -14   78.12    9.31
  -6   1 -15 1291.57   70.37
   6   1 -15 1295.23   87.13
  -6   1 -15 1397.89   71.69
   6  -1 -15 1231.34   84.10
  -6  -1 -15 1398.72   71.44
  -6  -1 -15 1334.77   73.15
  -6   1 -15 1338.09   72.80
   6   1 -16  235.87   29.63
  -6  -1 -16  234.93   18.66
  -6   1 -16  198.93   15.64
   6  -1 -16  197.23   26.25
  -6   1 -16  217.77   17.94
  -6  -1 -16  231.06   16.72
  -6   1 -16  244.72   17.56
  -6  -1 -17   47.14    8.41
  -6   1 -17   54.66    9.17
  -6   1 -17   36.40    7.62
   6   1 -17   28.21   14.85
  -6   1 -17   42.87    6.65
  -6  -1 -17   57.99    7.76
  -6  -1 -18   41.96    7.94
  -6   1 -18   24.54    5.00
  -6   1 -18   30.60    7.47
  -6   1 -18   34.89    7.21
  -6  -1 -18   33.95    6.35
  -6  -1 -19   30.99    6.68
  -6  -1 -19   32.27    6.32
  -6   1 -19   29.85    6.46
  -6   1 -19   38.88    7.69
  -6   1 -20   62.87    8.30
  -6  -1 -20   58.25    7.31
  -6   1 -20   65.45    8.73
   6   1 -21   61.36    8.23
  -6  -1 -21   79.80    8.31
  -6   1 -21   78.27    8.31
   6  -1 -21   70.71    8.54
  -6  -1 -21   68.57    7.03
  -6   1 -21   59.57    7.84
   6   1 -22   11.62    4.64
   6  -1 -22    8.93    4.86
  -7  -1   0  843.43   50.38
  -7  -1   0  795.59   58.38
  -7  -1   1  180.42   17.06
  -7  -1  -1  169.70   24.08
  -7  -1   1  146.85   20.11
  -7  -1  -1  181.93   16.84
  -7   1  -2 1037.89   53.80
  -7  -1  -2 1165.14   62.63
  -7  -1  -2 1032.08   53.96
  -7  -1   2 1072.90   61.96
  -7  -1   2 1159.63   64.52
  -7  -1  -2 1009.72   72.86
  -7  -1   3  342.06   27.04
  -7  -1  -3  370.11   20.50
  -7  -1  -3  330.20   35.86
  -7  -1   3  342.29   23.97
  -7   1  -3  363.99   20.39
  -7  -1  -3  388.37   27.87
  -7  -1  -4  322.18   35.55
  -7  -1  -4  363.30   27.53
  -7  -1  -5  121.61    9.09
  -7  -1  -5  150.96   15.97
  -7  -1  -5  120.42   21.50
  -7   1  -5  116.99    9.00
  -7  -1  -6 3004.45  152.37
  -7  -1  -6 2754.05  141.55
  -7   1  -6 2923.27  141.76
  -7  -1  -7  696.94   37.11
  -7   1  -7  789.65   58.71
  -7  -1  -7  708.39   46.69
  -7   1  -7  660.86   36.93
  -7  -1  -8  643.99   45.99
  -7  -1  -8  691.62   57.31
  -7   1  -8  693.79   36.66
  -7  -1  -8  645.01   36.33
  -7   1  -8  709.03   57.53
  -7   1  -9  143.13   24.32
  -7  -1  -9  121.92   23.61
  -7   1  -9  129.93   10.34
  -7   1 -10  209.87   16.23
  -7   1 -10  219.61   30.82
  -7  -1 -10  236.53   15.84
  -7   1 -10  256.64   16.28
  -7  -1 -10  238.05   17.42
  -7   1 -11  365.93   22.02
   7   1 -11  437.95   35.28
  -7   1 -11  362.26   22.18
  -7   1 -11  313.77   21.15
   7  -1 -11  388.91   32.24
  -7  -1 -11  358.08   22.02
  -7  -1 -11  362.53   23.75
  -7   1 -11  342.37   39.31
  -7   1 -11  338.47   22.70
   7  -1 -12   75.38   14.43
  -7   1 -12   71.92    7.54
   7   1 -12   75.34   15.76
  -7  -1 -12   65.45    8.87
  -7   1 -12   73.72    8.11
  -7   1 -12   76.03    8.54
  -7  -1 -12   80.58    8.39
  -7   1 -12   63.44    8.74
  -7   1 -12   81.52   20.59
  -7  -1 -13   20.98    5.23
  -7   1 -13   12.47    5.18
   7   1 -13   34.74   12.54
  -7   1 -13   18.19    5.97
  -7   1 -13   27.11   14.82
   7  -1 -13   34.00   11.03
  -7   1 -13   19.65    4.94
  -7   1 -13   19.83    4.46
  -7  -1 -13   26.80    6.69
   7   1 -14 1132.80   76.46
  -7   1 -14 1053.55   59.68
  -7  -1 -14 1133.46   62.71
  -7  -1 -14 1170.29   60.77
   7  -1 -14 1061.53   73.16
  -7   1 -14 1094.33   61.92
  -7   1 -14 1186.12   60.97
   7  -1 -15  121.70   11.14
   7   1 -15  113.16   20.63
  -7   1 -15  103.93   10.45
  -7  -1 -15  118.55   11.25
  -7   1 -15  116.51   12.48
  -7  -1 -15  112.51   12.85
  -7   1 -15  110.13   11.51
   7  -1 -15  117.91   19.25
  -7   1 -16   19.63    5.04
   7  -1 -16    3.48   11.91
   7   1 -16   25.60   12.10
  -7   1 -16   19.23    6.17
  -7   1 -16   22.85    7.56
  -7  -1 -16   21.17    7.06
  -7  -1 -16   21.74    5.77
  -7  -1 -17   11.99    6.01
  -7   1 -17   13.67    5.91
  -7  -1 -17   11.94    4.89
   7   1 -17    3.93   12.06
  -7   1 -17   22.18    7.08
  -7   1 -17   16.55    4.66
  -7  -1 -18    3.10    5.18
  -7   1 -18    2.94    4.97
  -7   1 -18    9.39    5.79
  -7  -1 -18    5.20    4.24
  -7   1 -19   63.62    8.26
  -7  -1 -19   45.97    8.00
  -7  -1 -19   62.20    7.90
  -7   1 -19   55.81    8.82
  -7  -1 -20   -2.45    4.54
  -7   1 -20    7.43    5.13
  -7  -1 -20    3.64    3.63
  -7   1 -20    1.64    4.57
   7  -1 -21   -3.40    4.87
   7   1 -21    4.80    4.47
   7   1 -22  142.89   10.69
   7  -1 -22  132.96   10.53
  -8  -1   0   79.34   11.85
  -8  -1   0   86.58   17.51
  -8  -1  -1  515.72   45.33
  -8  -1  -1  546.35   36.98
  -8  -1  -1  524.49   28.64
  -8  -1   1  591.59   42.82
  -8   1  -1  505.06   28.42
  -8  -1   1  539.69   36.86
  -8  -1  -2 1018.98   59.72
  -8  -1  -2  943.22   50.35
  -8   1  -2  965.34   50.33
  -8  -1   2 1067.79   61.51
  -8  -1   2 1003.76   59.74
  -8  -1  -2  959.75   70.21
  -8  -1  -3  839.98   52.80
  -8  -1   3  773.82   48.44
  -8  -1  -3  811.49   63.76
  -8  -1  -3  851.56   44.02
  -8   1  -3  840.93   43.89
  -8  -1   3  850.02   52.77
  -8  -1  -4   22.25    7.92
  -8  -1   4    6.43    6.00
  -8   1  -4    9.49    3.28
  -8  -1  -4   10.35    3.47
  -8  -1  -4   15.54   10.43
  -8  -1  -5    5.50    5.75
  -8  -1  -5   22.93   13.31
  -8  -1  -6 1021.69   76.14
  -8  -1  -6 1038.06   64.35
  -8  -1  -7  243.84   24.09
  -8   1  -7  238.82   15.99
  -8  -1  -8    9.23    7.53
  -8   1  -8   16.22    4.32
  -8   1  -8    9.72   10.73
  -8  -1  -9  135.92   12.40
  -8  -1  -9  149.21   11.41
  -8   1  -9  139.57   25.28
  -8   1  -9  158.79   11.69
  -8   1  -9  126.99   11.54
  -8   1  -9  141.21   11.45
  -8  -1  -9  149.35   19.06
  -8  -1  -9  109.73   23.84
  -8   1 -10  366.97   22.86
  -8  -1 -10  340.05   23.14
  -8   1 -10  357.53   21.74
  -8  -1 -10  317.32   20.95
  -8  -1 -10  333.23   21.55
  -8   1 -10  408.71   43.83
  -8   1 -10  323.86   21.29
  -8   1 -10  363.17   21.85
  -8  -1 -11  792.46   42.15
  -8   1 -11  763.91   41.72
  -8   1 -11  719.05   42.71
  -8  -1 -11  719.99   43.39
  -8   1 -11  763.98   41.43
  -8  -1 -11  710.20   40.75
  -8   1 -11  882.17   68.24
  -8   1 -11  771.53   41.97
   8  -1 -11  707.43   52.62
   8  -1 -12   75.35   14.85
  -8   1 -12   73.83    9.58
  -8  -1 -12   82.90    8.78
  -8   1 -12   75.22    7.74
  -8   1 -12   75.42    8.79
  -8  -1 -12   67.37    9.56
  -8  -1 -12   65.92    7.27
  -8   1 -12   79.10    8.31
   8   1 -12   44.96   13.80
  -8   1 -12   73.99   20.26
   8  -1 -13   91.62   16.70
  -8  -1 -13  105.99   10.58
  -8   1 -13   93.14    9.63
  -8   1 -13  104.49   22.94
  -8   1 -13  107.37    9.57
  -8   1 -13   98.79   10.55
  -8   1 -13  106.94   11.38
   8   1 -13   90.43   17.68
  -8  -1 -13  119.98   12.66
  -8   1 -14   48.42    6.36
   8  -1 -14   55.13   13.94
  -8   1 -14   40.87    7.60
  -8   1 -14   51.12    8.93
  -8  -1 -14   56.94    9.48
  -8   1 -14   52.08    7.27
   8   1 -14   65.73   15.76
  -8  -1 -14   64.39    8.10
   8  -1 -15   53.24    7.39
   8   1 -15   40.43   13.49
  -8  -1 -15   50.67    9.05
   8  -1 -15   71.75   15.32
  -8  -1 -15   38.13    7.08
  -8   1 -15   51.60    8.83
  -8   1 -15   35.37    6.27
  -8   1 -15   34.00    7.07
  -8  -1 -16   41.15    7.16
  -8   1 -16   37.36    8.37
  -8   1 -16   39.21    7.16
   8   1 -16   36.81   12.62
  -8  -1 -16   48.29    8.98
  -8  -1 -17   35.80    6.78
  -8  -1 -17   47.26    8.93
  -8   1 -17   41.84    7.31
  -8   1 -18  108.51   10.70
  -8  -1 -18   98.66   10.30
  -8  -1 -18   97.82   11.80
  -8   1 -18   95.61   11.55
  -8   1 -19   94.59   10.74
  -8  -1 -19   85.72    8.77
  -8  -1 -19   87.32   10.21
  -8   1 -20    4.74    4.74
  -8  -1 -20    5.37    4.21
  -8   1 -21   56.59    7.01
  -9  -1   0 1149.32   66.69
  -9   1   0 1057.71   55.33
  -9  -1   0 1031.51   55.33
  -9  -1   0 1195.21   74.10
  -9  -1  -1 1800.41   99.47
  -9   1  -1 1717.40   87.98
  -9  -1  -1 1714.33   88.21
  -9  -1   1 1909.26  104.21
  -9  -1   1 1712.72   98.85
  -9  -1  -1 1825.23  108.84
  -9  -1  -2 2517.81  136.34
  -9  -1  -2 2798.65  150.06
  -9   1  -2 2469.18  125.13
  -9  -1  -2 2493.57  125.28
  -9  -1   2 2519.06  136.45
  -9  -1   2 2557.94  136.49
  -9  -1  -3  278.72   25.39
  -9  -1  -3  256.87   32.58
  -9  -1   3  253.76   23.87
  -9  -1  -3  268.87   16.70
  -9  -1   3  232.83   20.29
  -9   1  -3  250.95   16.28
  -9  -1   4  647.13   45.39
  -9  -1  -4  657.56   35.82
  -9  -1  -4  633.46   55.40
  -9  -1  -4  652.95   45.65
  -9  -1  -5 1132.78   82.86
  -9  -1   5 1113.93   70.55
  -9  -1  -5 1122.52   70.48
  -9   1  -5 1258.61   84.04
  -9  -1   6  607.72   46.26
  -9  -1  -6  714.35   59.73
  -9  -1  -6  705.70   47.91
  -9   1  -7  731.50   39.08
  -9  -1  -7  653.52   39.29
  -9  -1  -7  779.40   50.82
  -9   1  -7  649.03   38.53
  -9  -1  -7  691.76   60.07
  -9  -1  -8  195.78   14.21
  -9   1  -8  211.10   31.00
  -9  -1  -8  183.90   15.14
  -9   1  -8  195.91   14.52
  -9  -1  -8  199.35   22.62
  -9  -1  -8  189.31   14.24
  -9   1  -9  170.44   29.01
  -9  -1  -9  167.08   14.46
  -9   1  -9  170.62   13.41
  -9  -1  -9  173.78   13.27
  -9  -1  -9  167.70   13.08
  -9  -1  -9  195.27   22.57
  -9   1 -10 1450.45   96.94
  -9  -1 -10 1248.76   67.66
  -9   1 -10 1288.02   68.92
  -9   1 -10 1239.87   67.35
  -9   1 -10 1347.32   67.80
  -9  -1 -10 1288.61   69.55
  -9  -1 -10 1242.01   66.97
  -9   1 -11  669.65   37.53
  -9   1 -11  657.46   39.10
  -9  -1 -11  622.06   39.51
  -9   1 -11  687.45   37.97
  -9   1 -11  612.87   60.30
  -9  -1 -11  677.14   38.00
  -9  -1 -11  641.19   36.89
  -9  -1 -12  132.06   13.89
  -9   1 -12  133.94   13.33
  -9   1 -12  153.94   11.86
   9   1 -12  100.21   19.05
  -9   1 -12  143.76   12.55
   9  -1 -12  132.83   19.87
  -9  -1 -12  130.75   11.13
  -9   1 -12  160.93   29.67
  -9  -1 -12  146.65   12.36
  -9  -1 -13  218.22   15.60
   9   1 -13  216.57   27.29
   9  -1 -13  222.24   26.32
  -9  -1 -13  258.80   19.59
  -9  -1 -13  236.51   17.30
  -9   1 -13  223.11   18.57
  -9   1 -13  230.33   17.33
  -9   1 -13  257.67   36.50
  -9   1 -13  243.97   16.43
  -9   1 -14   13.29    6.67
  -9   1 -14    6.91    5.31
  -9  -1 -14    9.97    6.41
  -9  -1 -14   11.83    4.97
  -9   1 -14   21.00    4.82
   9   1 -14   13.31   10.40
   9  -1 -14   15.22    9.05
  -9   1 -15   98.05   11.82
  -9   1 -15   76.22    9.55
   9   1 -15   74.66   16.40
  -9  -1 -15  103.21   10.37
   9  -1 -15   84.48   16.29
  -9  -1 -15   79.85   11.29
  -9  -1 -16   33.85    8.16
  -9  -1 -16   27.50    6.43
  -9   1 -16   39.34    8.16
   9  -1 -16   27.72    5.75
  -9  -1 -17  208.55   15.45
  -9   1 -17  184.31   16.75
  -9  -1 -17  203.26   17.53
  -9   1 -18  322.81   22.75
  -9  -1 -18  313.91   22.57
  -9   1 -19   40.83    7.77
  -9  -1 -19   37.19    7.23
  -9  -1 -20   21.11    5.00
  -9   1 -20    9.66    4.87
  -9   1 -21   17.46    4.31
 -10  -1   0 2173.90  116.45
 -10   1   0 1993.57  102.84
 -10  -1   0 1970.89  119.52
 -10  -1   0 2063.83  103.11
 -10   1   1   36.45    5.43
 -10   1  -1   45.25    5.66
 -10  -1  -1   39.72    9.48
 -10  -1  -1   41.56    5.72
 -10  -1   1   35.27    5.27
 -10  -1  -1   57.71   15.28
 -10  -1   1   52.97   11.63
 -10  -1   1   24.79   10.54
 -10  -1   2  369.81   31.05
 -10  -1  -2  339.53   21.18
 -10  -1  -2  359.93   31.05
 -10   1  -2  343.30   21.27
 -10  -1  -2  330.08   36.57
 -10  -1   2  349.06   29.63
 -10  -1  -3 2453.27  144.22
 -10   1  -3 2335.14  120.03
 -10  -1  -3 2443.84  120.44
 -10  -1   3 2332.59  132.58
 -10  -1  -3 2410.74  133.35
 -10  -1  -4 1241.12   78.58
 -10   1  -4 1377.82   90.85
 -10  -1  -4 1380.32   91.21
 -10  -1   4 1197.80   77.37
 -10  -1  -5  767.90   60.92
 -10  -1   5  722.07   49.03
 -10  -1  -5  624.31   38.33
 -10  -1  -5  750.95   49.68
 -10  -1  -5  620.22   37.63
 -10   1  -5  747.39   60.62
 -10   1  -6  713.65   42.50
 -10   1  -6  766.68   42.93
 -10  -1  -6  858.15   55.53
 -10   1  -6  841.07   65.77
 -10  -1  -6  885.37   68.43
 -10  -1  -6  734.70   42.61
 -10  -1   6  804.21   54.43
 -10  -1  -7   -2.77   11.80
 -10  -1   7   -1.54    7.23
 -10  -1  -7    1.83    3.72
 -10   1  -7    2.34    3.69
 -10   1  -7   -0.48    3.70
 -10  -1  -7    0.56    4.06
 -10  -1  -7    1.55    7.48
 -10  -1  -8  566.98   43.51
 -10  -1  -8  503.54   32.06
 -10   1  -8  488.71   31.17
 -10   1  -8  549.18   31.32
 -10  -1   8  576.96   43.78
 -10  -1  -8  575.11   54.87
 -10  -1  -8  489.85   30.56
 -10  -1  -9  270.80   29.97
 -10   1  -9  327.59   21.23
 -10  -1  -9  334.06   22.58
 -10  -1  -9  302.08   20.43
 -10   1  -9  355.84   42.61
 -10  -1  -9  294.33   20.53
 -10  -1 -10  542.33   31.56
 -10   1 -10  557.69   32.03
 -10  -1 -10  480.71   31.31
 -10  -1 -10  546.11   33.81
 -10   1 -11  912.48   74.36
 -10  -1 -11  807.25   47.63
 -10  -1 -11  774.62   44.46
 -10   1 -11  820.17   45.12
 -10  -1 -11  800.71   45.47
 -10   1 -11  822.49   47.06
 -10  -1 -12  473.05   27.98
 -10   1 -12  493.79   30.88
 -10   1 -12  451.66   28.16
 -10  -1 -12  449.10   28.77
  10   1 -12  457.97   42.11
  10  -1 -12  443.63   40.06
 -10   1 -12  449.51   51.11
 -10  -1 -12  488.58   31.40
 -10  -1 -13   21.80    5.88
  10  -1 -13   13.55    8.66
 -10  -1 -13   16.34    4.52
 -10   1 -13   15.94    4.87
 -10  -1 -13   12.33    6.55
 -10   1 -13   18.65    6.74
  10   1 -13   32.42   12.11
 -10   1 -14  149.92   14.79
 -10   1 -14  131.45   11.43
  10   1 -14  146.62   22.34
 -10  -1 -14  128.89   12.31
  10  -1 -14  150.33   21.39
 -10  -1 -14  139.24   14.92
 -10  -1 -15   20.23    7.23
 -10   1 -15   16.28    4.40
  10   1 -15   16.93   10.31
 -10   1 -15   30.43    7.86
  10  -1 -16  160.14   13.72
 -10  -1 -16  201.41   17.17
 -10   1 -16  217.73   17.29
 -10  -1 -17  110.06   12.72
 -10   1 -17  129.79   13.40
 -10   1 -18  137.55   12.76
 -10  -1 -18  106.37   12.08
 -10  -1 -19  165.92   14.52
 -10   1 -19  216.42   15.75
 -10  -1 -20   12.81    4.02
 -10   1 -20    8.28    4.31
 -10   1 -21    4.58    3.06
 -11  -1   0  297.86   19.91
 -11  -1   0  259.91   17.39
 -11   1   0  235.19   18.36
 -11  -1   0  267.92   27.27
 -11  -1   0  247.75   28.25
 -11   1   0  243.39   16.98
 -11  -1   1  434.39   37.84
 -11   1  -1  472.50   27.39
 -11  -1   1  547.03   30.65
 -11   1  -1  447.95   28.81
 -11  -1  -1  406.07   40.61
 -11  -1   1  424.00   37.40
 -11  -1  -1  445.75   27.47
 -11  -1  -1  488.43   39.20
 -11  -1   1  467.10   27.58
 -11  -1   2   62.18   14.06
 -11   1  -2   59.10    8.37
 -11   1  -2   95.54   19.35
 -11  -1  -2   58.09    8.46
 -11  -1  -2   62.57    8.36
 -11  -1  -2   82.29    9.26
 -11  -1  -2   70.07   14.85
 -11  -1  -2   88.61   18.71
 -11  -1   2   67.56    8.95
 -11  -1  -2   62.97    7.55
 -11  -1  -3  269.41   33.54
 -11   1  -3  267.53   19.63
 -11   1  -3  279.89   19.44
 -11  -1  -3  299.88   20.60
 -11  -1  -3  275.20   19.74
 -11  -1   3  291.30   28.42
 -11  -1  -3  280.14   18.71
 -11  -1  -3  304.74   29.58
 -11   1  -3  321.26   36.71
 -11  -1  -3  286.59   20.39
 -11   1  -4  899.74   66.29
 -11  -1  -4  800.98   55.11
 -11   1  -4  725.05   42.07
 -11  -1   4  773.82   53.99
 -11  -1  -4  733.03   43.15
 -11  -1  -4  699.82   61.07
 -11   1  -4  725.23   42.43
 -11  -1  -5  554.42   34.03
 -11  -1  -5  571.06   53.23
 -11   1  -5  649.85   55.84
 -11  -1   5  607.09   45.22
 -11  -1  -5  571.56   45.09
 -11   1  -5  531.92   32.83
 -11   1  -5  533.77   33.09
 -11   1  -6   67.84   19.66
 -11  -1  -6  114.89   24.01
 -11  -1  -6   78.74    9.42
 -11   1  -6   72.00    9.01
 -11  -1   6   80.34   15.56
 -11  -1  -6  106.18   17.72
 -11   1  -7  118.29   12.02
 -11  -1  -7  102.88   18.42
 -11   1  -7  148.27   28.41
 -11  -1   7  144.81   20.20
 -11  -1  -7  135.75   12.08
 -11  -1  -7  123.03   25.56
 -11   1  -7  134.58   12.16
 -11  -1   8   41.66   13.28
 -11  -1  -8   56.59    8.10
 -11   1  -8   79.96    9.02
 -11   1  -8   53.98    8.37
 -11  -1  -8   65.82    9.51
 -11  -1  -8   52.54   14.25
 -11  -1  -9  423.94   38.73
 -11  -1  -9  375.08   26.75
 -11  -1   9  385.31   36.74
 -11   1  -9  383.33   26.17
 -11   1  -9  424.62   25.81
 -11  -1  -9  392.85   25.27
 -11   1  10  244.58   29.60
 -11  -1  10  240.27   29.96
 -11   1 -10  310.03   20.41
 -11  -1 -10  298.65   22.15
 -11  -1 -10  285.54   19.96
 -11  -1 -11  135.09   14.25
 -11  -1  11   82.36   17.84
 -11  -1 -11  123.73   11.68
 -11   1  11  144.23   22.29
 -11   1 -11  145.35   12.30
 -11   1 -11  169.06   30.92
 -11   1 -12   26.11   15.79
 -11  -1  12   12.07   10.04
  11   1 -12   17.48   11.54
 -11   1 -12   22.37    5.82
  11  -1 -12   22.52   10.31
 -11  -1 -12   26.30    8.06
 -11  -1 -12   25.22    5.43
 -11   1  12   44.01   13.70
 -11   1 -12   24.32    7.34
 -11   1 -13  260.33   20.02
 -11  -1 -13  225.76   16.21
 -11  -1 -13  275.82   20.96
  11  -1 -13  217.98   26.48
  11   1 -13  182.35   26.44
 -11   1 -13  241.36   16.98
 -11   1  13  188.32   26.95
 -11  -1  13  203.26   27.62
 -11  -1 -14   36.83    5.94
 -11   1 -14   47.90    6.57
 -11   1 -14   46.56    8.73
  11   1 -14   20.64   11.06
 -11   1  14   40.27   13.31
 -11  -1  14   52.40   14.27
 -11  -1 -14   42.52    9.16
 -11   1 -15  101.26   11.56
 -11   1 -15   66.69    7.66
 -11  -1 -15   92.75   11.69
 -11   1 -16   37.40    7.78
  11  -1 -16   30.69    5.70
 -11  -1 -16   41.64    8.40
 -11  -1 -17  198.37   17.02
 -11   1 -17  217.42   17.21
 -11  -1 -18  134.89   13.26
 -11   1 -18  177.87   14.37
 -11  -1 -19   20.60    5.44
 -11   1 -19   21.48    5.62
 -11   1 -20   18.11    4.74
 -12  -1   0  454.87   40.71
 -12   1   0  486.79   30.38
 -12  -1   0  500.37   29.42
 -12   1   0  523.01   45.08
 -12  -1   0  491.42   30.62
 -12  -1   0  495.86   41.77
 -12   1   0  472.86   29.49
 -12   1   1  727.80   42.20
 -12   1  -1  743.36   41.97
 -12  -1   1  737.12   41.24
 -12  -1  -1  816.70   56.20
 -12   1  -1  866.70   61.60
 -12   1  -1  701.71   42.30
 -12  -1   1  726.94   54.43
 -12   1   1  790.18   56.96
 -12  -1  -1  712.44   42.42
 -12  -1   1  700.35   42.24
 -12  -1  -1  771.08   57.31
 -12  -1  -1  729.03   41.20
 -12  -1   2  286.09   29.47
 -12   1  -2  254.07   19.01
 -12  -1  -2  258.37   19.07
 -12  -1   2  256.32   18.11
 -12   1   2  281.41   19.27
 -12  -1  -2  257.94   19.69
 -12  -1  -2  248.82   31.00
 -12   1  -2  263.54   18.94
 -12  -1  -2  248.31   28.23
 -12   1  -2  304.43   34.49
 -12  -1  -2  274.55   18.89
 -12   1   2  253.20   28.26
 -12  -1  -3   11.66    5.13
 -12  -1  -3   18.25    5.98
 -12  -1   3   22.19   10.29
 -12   1  -3   14.21    5.23
 -12  -1  -3    4.56    9.72
 -12   1  -3   14.39   11.91
 -12  -1  -3   14.17    9.89
 -12   1  -3    9.44    4.73
 -12   1   3   15.73    5.00
 -12  -1  -3    4.86    4.25
 -12  -1  -4  344.49   23.49
 -12  -1   4  384.14   23.64
 -12  -1  -4  319.16   33.16
 -12   1  -4  337.68   23.49
 -12   1  -4  354.99   23.61
 -12  -1  -4  342.75   24.40
 -12   1  -4  354.37   40.26
 -12  -1   4  316.09   32.70
 -12  -1  -4  367.67   40.29
 -12   1  -5    9.87    5.37
 -12  -1   5    5.80    4.54
 -12  -1  -5    2.61   12.95
 -12  -1  -5    3.59    7.64
 -12  -1  -5    3.82    5.28
 -12   1  -5  -10.68   14.88
 -12   1  -5    4.41    4.35
 -12  -1   5    5.22    7.67
 -12   1  -6   87.81    9.87
 -12  -1  -6   69.56    9.19
 -12  -1  -6   80.64   16.70
 -12  -1  -6   77.59   10.54
 -12  -1  -6   57.94   18.41
 -12   1  -6   75.85   21.04
 -12  -1   6   77.51   16.46
 -12   1  -7 1285.12   83.64
 -12  -1  -7 1259.16   68.85
 -12   1  -7 1293.31   69.66
 -12  -1  -7 1297.38   84.50
 -12  -1   7 1281.20   83.09
 -12   1  -7 1241.26   68.85
 -12   1  -7 1444.66   97.94
 -12   1  -8  232.67   36.29
 -12   1   8  215.11   27.05
 -12   1  -8  258.03   18.40
 -12  -1   8  188.03   25.86
 -12   1  -8  216.63   27.89
 -12  -1  -8  251.11   18.09
 -12  -1  -8  209.81   28.17
 -12   1  -8  228.76   18.51
 -12  -1   9   -1.89    9.39
 -12   1  -9   23.29    6.24
 -12   1   9   -3.77    9.35
 -12   1  -9   12.90    5.41
 -12  -1  -9    2.84    5.73
 -12   1  -9   -3.16   11.93
 -12   1  -9    5.60    9.26
 -12  -1  -9   16.19    5.30
 -12  -1  -9   -1.92   10.49
 -12   1 -10  131.55   12.19
 -12  -1 -10  136.56   14.09
 -12   1 -10  114.75   12.70
 -12   1  10   82.84   18.35
 -12  -1 -10  128.06   11.81
 -12  -1  10   94.92   19.09
 -12  -1 -11   23.40    5.92
 -12   1  11   41.18   13.81
 -12  -1 -11   14.87    7.29
 -12  -1  11   35.51   12.95
 -12   1 -11   31.28    6.43
 -12  -1 -12  264.46   20.75
 -12  -1  12  200.15   27.73
 -12  -1 -12  243.04   17.22
 -12   1 -12  280.32   18.18
  12   1 -12  205.24   27.51
 -12   1  12  224.68   28.68
  12  -1 -12  163.75   23.87
 -12   1 -13   21.40    5.35
 -12   1  13   13.69    9.99
 -12  -1 -13   17.64    4.96
 -12  -1 -13   11.12    6.70
 -12  -1  13   15.70   10.75
 -12   1 -13   35.00    8.09
  12   1 -13   15.14    9.67
 -12  -1 -14   45.12    6.40
 -12   1 -14   54.90    9.50
 -12  -1 -14   65.49    9.93
 -12   1 -14   42.32    6.47
 -12   1 -15  596.22   35.91
 -12   1 -15  545.12   31.57
 -12  -1 -15  587.98   36.25
 -12   1 -16  236.43   17.29
 -12  -1 -16  206.01   16.83
 -12  -1 -17   23.59    6.68
 -12   1 -17   18.18    6.31
 -12   1 -18   30.93    6.53
 -12  -1 -18   17.71    5.65
 -12   1 -19   19.33    4.99
 -12   1 -20   43.62    5.28
 -13   1   0  675.71   39.53
 -13  -1   0  663.73   39.47
 -13   1   0  567.01   51.54
 -13  -1   0  694.98   39.13
 -13  -1   0  697.20   53.86
 -13  -1  -1  256.78   18.83
 -13  -1   1  255.24   29.00
 -13  -1  -1  286.77   19.70
 -13   1  -1  269.21   31.99
 -13   1  -1  232.26   18.41
 -13   1   1  273.80   19.62
 -13   1  -1  263.20   19.31
 -13  -1   1  247.39   18.26
 -13  -1   1  262.49   19.48
 -13  -1  -1  256.82   29.60
 -13   1   1  261.00   29.17
 -13  -1  -2  747.96   43.34
 -13  -1  -2  740.61   43.82
 -13   1   2  739.93   43.32
 -13  -1   2  801.37   44.20
 -13  -1  -2  749.10   58.18
 -13   1  -2  782.95   43.95
 -13   1  -2  753.31   43.99
 -13  -1   2  752.76   57.27
 -13  -1   2  754.39   42.91
 -13   1  -2  754.40   61.59
 -13  -1  -3  269.43   21.00
 -13  -1   3  252.91   30.18
 -13   1   3  253.80   19.24
 -13  -1  -3  269.90   20.07
 -13  -1   3  281.10   19.58
 -13   1  -3  281.29   20.25
 -13  -1  -3  283.43   31.68
 -13   1  -3  275.50   20.20
 -13  -1   3  312.38   20.54
 -13   1  -3  301.69   36.03
 -13  -1  -4   88.20   10.84
 -13  -1  -4   85.59   10.41
 -13   1   4   88.00   17.26
 -13  -1   4   78.96    9.24
 -13   1  -4   76.00    9.83
 -13   1  -4  102.08   17.68
 -13  -1  -4   89.43   17.47
 -13   1   4   79.37    8.94
 -13  -1   4   63.83   14.89
 -13  -1   4   92.54    9.94
 -13   1  -4   88.69   10.48
 -13   1  -4   87.63   21.13
 -13  -1   5   52.80   15.28
 -13  -1   5   91.11    9.82
 -13   1  -5   93.67   10.82
 -13   1  -5   87.17   10.67
 -13   1  -5  111.55   23.93
 -13  -1  -5   94.11   18.99
 -13   1   5   94.17   19.13
 -13  -1  -5   83.32   11.08
 -13   1  -5   60.96   16.46
 -13   1  -6  953.18   54.18
 -13  -1   6 1059.15   70.33
 -13   1   6  896.82   67.17
 -13  -1  -6  955.12   69.07
 -13  -1  -6  946.33   55.27
 -13   1  -6  937.46   68.17
 -13   1  -6 1035.26   78.87
 -13   1   7  269.14   30.66
 -13   1  -7  304.55   32.35
 -13  -1   7  256.07   30.39
 -13   1  -7  284.86   20.94
 -13  -1  -7  268.05   20.16
 -13  -1  -7  277.56   32.03
 -13  -1  -7  277.87   21.56
 -13   1  -7  296.48   39.45
 -13   1  -8  369.19   38.12
 -13  -1  -8  418.28   26.91
 -13  -1  -8  401.96   39.72
 -13   1   8  377.01   37.98
 -13   1  -8  381.63   47.37
 -13   1  -8  417.25   27.78
 -13   1  -8  419.78   27.18
 -13  -1   8  428.51   39.75
 -13  -1  -9   49.26    7.86
 -13   1  -9   52.59    8.35
 -13  -1  -9   34.05   13.28
 -13  -1   9   27.33   12.17
 -13   1   9   33.04   12.31
 -13   1  -9   55.03    9.24
 -13   1  -9   59.94   20.11
 -13   1  -9   42.82   14.01
 -13  -1 -10   97.11   10.55
 -13   1 -10  101.89   12.64
 -13   1 -10  105.63   11.05
 -13   1  10   80.07   16.87
 -13   1 -10   73.40   21.40
 -13  -1  10   98.19   18.51
 -13  -1 -10  111.68   13.23
 -13  -1 -11  280.08   19.20
 -13   1 -11  315.81   20.17
 -13   1  11  245.31   30.20
 -13  -1  11  201.74   28.31
 -13  -1 -11  243.03   21.21
 -13   1 -12    0.48    4.49
 -13  -1 -12    3.61    4.14
 -13  -1 -12    2.96    6.29
 -13   1 -13   33.66    6.11
 -13  -1 -13   32.31    6.00
 -13  -1 -13   35.11    8.55
 -13   1 -14  576.57   32.36
 -13   1 -14  587.74   35.94
 -13  -1 -14  538.84   31.58
 -13  -1 -14  598.78   36.52
  13  -1 -15   98.50   10.19
 -13   1 -15  117.62   12.31
 -13  -1 -15  132.05   13.11
 -13   1 -16    9.11    5.87
 -13  -1 -16   25.02    6.89
  13  -1 -16   16.96    4.30
 -13  -1 -17   25.01    6.18
 -13   1 -17   27.65    6.28
 -13   1 -18    6.58    4.05
 -13   1 -19   40.28    5.46
 -14  -1   0    0.52    4.82
 -14   1   0   -5.72    7.82
 -14   1   0    4.07    9.55
 -14  -1   0  -18.58   12.65
 -14   1   0   -1.12    5.07
 -14  -1   0    0.57    5.55
 -14  -1   1  299.58   34.41
 -14  -1  -1  329.18   23.00
 -14   1   1  330.56   22.54
 -14  -1  -1  348.75   22.82
 -14   1   1  288.43   33.51
 -14  -1   1  313.68   21.97
 -14   1  -1  305.02   34.61
 -14   1  -1  306.71   34.81
 -14  -1   1  330.75   22.79
 -14   1  -1  341.36   23.07
 -14  -1  -1  310.17   35.47
 -14  -1   2   98.34   19.14
 -14  -1   2  103.98   10.87
 -14   1  -2   96.97   20.59
 -14   1  -2  103.58   11.54
 -14  -1  -2  104.21   20.25
 -14   1   2   93.59   10.44
 -14  -1  -2  105.07   11.04
 -14  -1   2   84.78   10.18
 -14   1  -2   95.52   10.78
 -14   1   2   87.71   18.33
 -14   1  -2   77.30   17.80
 -14  -1  -2  109.79   11.63
 -14   1  -3  222.46   28.78
 -14   1  -3  236.10   18.19
 -14   1  -3  224.47   31.40
 -14  -1  -3  238.43   18.16
 -14   1   3  233.23   28.97
 -14  -1   3  234.07   17.30
 -14   1   3  202.72   16.46
 -14   1  -3  219.70   17.82
 -14  -1   3  234.09   29.24
 -14  -1   3  240.90   17.65
 -14  -1  -3  182.24   26.91
 -14  -1  -4   -0.59    5.44
 -14  -1   4    0.51    4.76
 -14   1  -4   -2.02    9.46
 -14   1   4    1.84    3.78
 -14   1  -4   10.68    4.96
 -14  -1  -4   -2.07    9.99
 -14  -1   4   -3.99    9.36
 -14   1   4    1.99    9.05
 -14   1  -4    4.31    4.90
 -14  -1   4   -5.95    5.50
 -14   1  -4    5.12   10.90
 -14   1  -5    8.33    5.42
 -14  -1   5    1.99   10.14
 -14   1  -5    2.69   10.15
 -14  -1  -5    6.37    6.24
 -14   1  -5    7.57    5.52
 -14  -1   5   -0.95    4.20
 -14   1   5   -7.97    9.88
 -14  -1   5   -2.98    5.64
 -14   1  -5   -4.06   10.32
 -14   1  -6  140.34   22.50
 -14   1   6  139.47   22.54
 -14  -1  -6  143.22   14.53
 -14   1  -6  160.42   28.36
 -14  -1   6  141.59   22.90
 -14   1  -6  140.22   14.05
 -14  -1  -6  173.53   25.29
 -14   1  -6  124.65   13.00
 -14  -1  -7  140.68   24.19
 -14   1   7  161.11   24.22
 -14  -1   7  109.60   21.08
 -14   1  -7  151.70   28.43
 -14  -1  -7  161.30   14.55
 -14   1  -7  164.66   15.25
 -14  -1  -7  188.53   16.67
 -14   1  -7  148.88   24.03
 -14  -1  -8   12.57    6.94
 -14  -1   8   -3.98    9.61
 -14  -1  -8    5.62    5.09
 -14   1  -8    2.99   12.27
 -14   1   8    1.98    9.31
 -14   1  -8   13.26    6.13
 -14   1  -8    6.73    5.93
 -14  -1  -8    2.05    8.09
 -14   1  -8   15.95   10.65
 -14  -1  -9   20.24   11.84
 -14   1   9   21.64   11.51
 -14   1  -9   19.68   11.73
 -14   1  -9   34.57    7.89
 -14   1  -9   31.84    7.18
 -14  -1   9   27.67   11.78
 -14  -1  -9   41.85    7.82
 -14   1  -9   30.27   15.85
 -14   1  10   31.05   11.88
 -14   1 -10   52.83    8.21
 -14  -1 -10   51.17    8.20
 -14   1 -10   37.35    8.32
 -14  -1  10   44.89   13.13
 -14   1 -11  208.48   15.90
 -14  -1 -11  203.94   15.52
 -14  -1 -11  185.81   17.74
 -14   1 -11  200.40   17.66
 -14   1 -12   22.24    5.76
 -14  -1 -12   12.61    6.99
 -14  -1 -12   13.77    5.15
 -14  -1 -13   75.86    8.03
 -14  -1 -13   87.50   11.25
 -14   1 -13   66.08    8.12
 -14   1 -14   21.47    4.76
 -14  -1 -14   14.05    6.48
 -14  -1 -14   20.99    4.41
  14  -1 -15   14.26    4.57
 -14  -1 -15   10.39    5.67
 -14   1 -15   16.76    6.26
 -14   1 -16    3.67    4.62
  14  -1 -16    7.77    3.20
 -14   1 -17   -2.31    3.61
 -14   1 -18   33.00    4.95
 -15  -1   0  244.55   18.33
 -15   1   0  191.66   27.93
 -15  -1   0  234.77   18.09
 -15   1   0  218.98   17.48
 -15  -1   0  236.74   30.23
 -15  -1  -1  -17.24   13.45
 -15   1  -1    8.50   11.36
 -15  -1  -1   16.81    6.43
 -15  -1   1   18.45    6.74
 -15  -1   1   10.73    6.64
 -15   1   1    8.47   12.30
 -15  -1  -1   20.04    7.03
 -15   1   1   17.76    5.98
 -15   1  -1   23.44    7.01
 -15  -1  -2  772.36   42.41
 -15   1   2  674.00   40.56
 -15   1  -2  638.56   55.26
 -15  -1   2  706.99   41.25
 -15  -1   2  649.65   55.80
 -15   1   2  720.07   57.30
 -15  -1   2  722.84   41.50
 -15   1  -2  734.95   41.90
 -15   1  -2  606.74   55.50
 -15  -1  -2  707.50   57.37
 -15   1  -3   -6.27   13.49
 -15   1   3   24.12    5.91
 -15   1  -3   23.22   12.70
 -15  -1   3   24.52    6.43
 -15  -1   3    6.21   13.76
 -15  -1  -3   -2.13   10.62
 -15   1  -3   24.76    6.90
 -15  -1   3   15.50    6.71
 -15  -1  -3   27.74    7.29
 -15  -1   4  310.73   22.28
 -15   1  -4  340.55   23.40
 -15  -1  -4  326.53   36.24
 -15   1  -4  329.82   35.52
 -15  -1  -4  325.48   22.94
 -15  -1   4  362.32   22.42
 -15   1   4  306.99   21.04
 -15  -1   4  311.46   35.07
 -15   1  -4  298.32   37.24
 -15   1   4  294.79   34.58
 -15   1  -4  323.94   23.07
 -15   1  -5   11.26    6.26
 -15  -1   5    1.00    4.63
 -15   1   5   -8.13    9.26
 -15   1  -5   12.49    9.76
 -15  -1   5   -1.37    4.53
 -15  -1   5    2.04    8.35
 -15  -1  -5   -2.13    9.70
 -15  -1  -5    2.35    5.39
 -15   1  -5    2.59    9.76
 -15   1  -5    4.40    5.26
 -15   1  -6   53.41   15.66
 -15   1  -6   71.33   10.09
 -15  -1   6   68.25    8.92
 -15  -1  -6   67.40   17.90
 -15  -1   6   54.40   15.54
 -15   1  -6   82.27   10.30
 -15   1   6   48.29   14.66
 -15   1  -6   58.98   18.08
 -15   1   7    3.98    9.66
 -15   1  -7   31.21    7.88
 -15  -1   7   35.88   14.21
 -15   1  -7   -2.01   11.95
 -15  -1  -7   26.85   12.92
 -15  -1   7   30.51    6.39
 -15   1  -7   13.75   12.95
 -15  -1  -7   36.26    7.84
 -15   1  -8   -5.90   10.01
 -15  -1  -8   10.74    6.86
 -15  -1  -8  -14.14   13.79
 -15   1   8   -1.96    9.17
 -15   1  -8    1.31    5.31
 -15  -1   8    3.86    4.88
 -15  -1  -8    0.55    4.59
 -15   1  -8    5.56   10.50
 -15  -1   8   11.78    9.99
 -15  -1  -9   31.43    6.92
 -15   1  -9   16.26    6.93
 -15   1  -9   16.61    6.12
 -15  -1   9   19.29    5.65
 -15  -1 -10  457.01   29.38
 -15   1 -10  487.81   29.85
 -15   1 -10  517.22   31.93
 -15   1 -11   12.47    5.60
 -15  -1 -11   15.99    4.94
 -15   1 -11   11.77    6.72
 -15  -1 -12  130.56   10.93
 -15   1 -12  135.09   11.42
 -15   1 -12  119.02   12.92
 -15  -1 -12  131.13   13.64
 -15  -1 -13   16.47    3.79
 -15   1 -13    1.41    3.79
 -15  -1 -13    4.07    6.00
 -15  -1 -14    0.74    2.82
 -15   1 -14    1.70    2.95
 -15  -1  15    4.12    3.11
  15  -1 -15    3.29    3.25
 -15   1  15    5.62    3.35
  15  -1 -16   10.43    2.42
 -15  -1  16   17.34    3.48
 -15   1 -16   18.99    4.80
 -15   1  16   14.69    3.51
 -16  -1   0   -6.41   12.16
 -16   1   0   18.76    6.00
 -16  -1   0   15.46    5.88
 -16  -1   0    9.62    5.95
 -16   1   0    8.48   10.80
 -16  -1  -1   53.16   16.55
 -16   1  -1   50.52   16.04
 -16  -1   1   68.14   17.61
 -16  -1   1   65.65    9.09
 -16   1  -1   72.83    9.50
 -16  -1   1   68.05    9.21
 -16   1   1   63.33    8.59
 -16  -1  -1   88.22    9.99
 -16   1   1   46.63   14.83
 -16  -1   2   11.93    5.63
 -16   1   2   14.61    5.14
 -16  -1  -2    8.48   10.53
 -16   1  -2    8.35   10.90
 -16   1  -2    9.56    5.93
 -16  -1  -2   18.75    6.30
 -16  -1   2   14.84    5.87
 -16   1   2    4.20   10.44
 -16  -1   2    2.11   11.00
 -16  -1   3  947.30   70.18
 -16   1  -3  896.16   69.70
 -16   1  -3  981.16   54.85
 -16   1   3  918.74   52.87
 -16  -1   3  997.10   53.93
 -16  -1  -3  927.17   70.38
 -16  -1  -3 1010.66   55.07
 -16   1   3  962.46   70.76
 -16  -1   3 1048.68   54.51
 -16   1  -4   10.32   10.77
 -16  -1   4    2.03   10.61
 -16  -1  -4    5.69    5.69
 -16   1  -4    7.97    5.55
 -16  -1   4    5.04    5.17
 -16  -1   4   10.13    5.03
 -16   1   4    2.03    9.25
 -16   1   4    7.31    3.96
 -16  -1  -4    4.20    9.57
 -16  -1   5  223.05   28.80
 -16  -1   5  242.99   17.37
 -16  -1  -5  233.15   30.25
 -16  -1  -5  280.30   19.77
 -16   1  -5  185.70   27.39
 -16   1  -5  281.95   19.77
 -16   1   5  224.80   29.04
 -16  -1   5  275.95   18.76
 -16   1  -6   31.16    6.91
 -16  -1   6   23.05    6.05
 -16   1  -7   31.92    7.10
 -16  -1   7   30.75    6.23
 -16   1  -7   31.19    7.41
 -16  -1   8    8.56    4.66
 -16  -1  -8   11.76    5.69
 -16   1  -8    7.15    5.18
 -16  -1  -9  190.97   14.92
 -16   1  -9  174.31   15.36
 -16   1  -9  176.38   14.64
 -16  -1   9  166.01   13.76
 -16  -1  10   16.04    5.20
 -16   1 -10   22.04    6.79
 -16  -1 -10   21.94    5.72
 -16   1 -10   24.86    6.08
 -16  -1 -11  519.07   28.54
 -16  -1  11  467.77   28.22
 -16   1 -11  439.33   29.59
 -16   1  11  475.01   28.28
 -16   1 -11  490.73   28.63
 -16   1 -12   16.89    5.76
 -16  -1  12    5.63    4.17
 -16   1 -12   10.59    4.34
 -16   1  12   11.57    4.47
 -16  -1 -12   10.26    4.19
 -16   1 -13   37.53    5.32
 -16  -1 -13   37.77    4.91
 -16   1 -13   38.65    6.73
 -16   1  13   31.52    5.13
 -16  -1  13   38.82    5.37
  16  -1 -14   11.28    3.94
 -16   1  14   10.44    3.35
 -16  -1  14    8.23    3.15
 -16  -1 -14   13.16    2.82
  16  -1 -15    8.23    2.53
 -17  -1   0   12.20    5.54
 -17   1   0    9.32    5.11
 -17   1  -1   -0.51    4.96
 -17   1   1    3.74    4.32
 -17  -1  -1    3.11    4.86
 -17  -1   1   -0.50    4.86
 -17  -1   1   -2.46    4.95
 -17  -1  -2  115.70   11.88
 -17  -1   2  131.39   11.90
 -17   1   2  119.34   10.88
 -17  -1   2  112.01   11.18
 -17   1  -2  121.50   11.54
 -17  -1   3   22.01    6.19
 -17  -1  -3   12.59    5.95
 -17  -1   3   15.47    5.18
 -17   1   3   12.32    4.49
 -17   1  -3   17.72    6.12
 -17  -1   4  300.86   20.34
 -17   1  -4  309.02   21.84
 -17  -1  -4  347.11   22.42
 -17  -1   4  325.12   21.62
 -17  -1  -5   12.82    6.10
 -17  -1   5   14.36    5.54
 -17  -1   5   12.46    4.14
 -17   1  -5   16.94    6.43
 -17  -1   6   12.46    4.95
 -17  -1  -6   19.95    6.22
 -17   1  -6    8.52    5.20
 -17   1  -7    4.82    5.15
 -17  -1   7    7.67    4.18
 -17  -1   8    0.41    4.07
 -17  -1  -8    9.44    4.93
 -17   1   8   -0.40    4.02
 -17  -1  -9   56.29    7.68
 -17   1   9   68.95    7.78
 -17  -1   9   61.62    7.48
 -17  -1 -10  187.62   13.46
 -17   1 -10  184.38   13.53
 -17  -1  10  172.31   13.09
 -17   1  10  172.90   13.14
 -17   1  11    2.24    3.43
 -17  -1  11    6.44    3.67
 -17  -1 -11    7.35    3.77
 -17   1 -11   10.05    4.05
 -17  -1 -12   27.37    4.45
 -17   1  12   22.59    4.39
 -17  -1  12   32.99    4.88
 -17   1 -12   34.81    4.99
 -17  -1 -13   20.72    3.22
  17  -1 -13   18.17    4.17
 -17   1  13   22.87    3.98
 -17  -1  13   20.89    3.83
  17  -1 -14    2.65    2.24
 -18  -1   0    6.17    4.63
 -18   1   0   -1.26    4.47
 -18   1  -1  114.60   10.97
 -18  -1  -1  142.75   11.94
 -18   1   1  123.10   10.74
 -18  -1   1  123.86   11.16
 -18  -1   2    2.80    4.00
 -18  -1  -2    3.66    4.83
 -18   1  -2    3.58    4.61
 -18   1   2    2.55    3.55
 -18  -1   3    7.01    4.14
 -18  -1  -3    5.49    4.77
 -18   1   3    0.43    4.30
 -18   1   3    5.79    3.38
 -18  -1   3    0.43    4.00
 -18   1  -3    7.21    4.92
 -18   1  -4    7.62    4.97
 -18  -1   4    2.62    3.38
 -18   1   4    2.50    4.45
 -18  -1  -4    7.24    4.69
 -18  -1   4    1.67    4.15
 -18   1  -5   11.42    5.26
 -18  -1  -5    8.82    5.09
 -18   1   5   16.50    4.91
 -18  -1   5    0.81    4.38
 -18   1   6    6.63    4.50
 -18  -1   6    4.32    4.34
 -18   1  -6    4.67    4.82
 -18  -1  -6   15.68    5.45
 -18  -1   7  255.15   17.30
 -18   1   7  258.48   17.29
 -18   1  -7  258.34   17.67
 -18   1   8    9.93    4.36
 -18  -1   8    5.52    3.85
 -18  -1  -8    9.99    4.69
 -18   1   9   10.38    3.47
 -18  -1  -9    2.67    3.94
 -18  -1   9    9.20    3.46
 -18   1 -10   12.92    3.93
 -18   1  10    5.99    3.37
 -18  -1 -10    6.64    3.45
 -18  -1  10    3.73    3.13
 -18  -1 -11    1.18    2.71
 -18   1 -11    3.29    2.84
 -18  -1  11   -1.01    2.67
 -18   1  11   -1.77    2.87
 -18  -1 -12    6.07    2.20
  18  -1 -13    3.08    2.03
 -19   1   0  329.29   20.15
 -19  -1   0  321.98   20.28
 -19   1  -1   75.56    7.98
 -19   1   1   69.76    7.25
 -19  -1  -1   84.61    8.37
 -19  -1   1   76.50    7.85
 -19  -1  -2  188.34   13.23
 -19   1  -2  186.93   13.00
 -19   1   2  149.42   11.40
 -19  -1   2  173.84   12.28
 -19  -1   3   24.50    4.34
 -19   1  -3   36.26    5.74
 -19  -1  -3   40.03    6.32
 -19  -1  -4    3.64    4.02
 -19   1  -4    0.36    4.27
 -19   1  -5   74.36    7.78
 -19  -1  -5   61.88    7.35
 -19   1  -6  292.66   18.54
 -19  -1   6  281.81   18.11
 -19  -1  -6  311.64   18.75
 -19   1   7   15.73    3.94
 -19  -1   7   16.45    3.95
 -19   1  -7   20.57    4.49
 -19  -1   8  185.77   12.48
 -19   1  -8  189.05   12.82
 -19   1   8  190.54   12.44
 -19  -1  -9   37.49    4.77
 -19  -1 -10   31.39    3.92
 -19   1 -10   33.14    4.19
  19  -1 -11    7.54    2.94
 -19  -1 -11    9.06    2.05
 -20  -1   0  217.25   13.16
 -20   1   0  187.11   12.53
 -20   1  -1  143.75    9.82
 -20  -1  -1  148.14   10.09
 -20   1   1  120.12    8.90
 -20  -1   1  125.73    9.38
 -20  -1   2   87.23    7.17
 -20   1  -2  104.82    8.06
 -20  -1  -2   99.67    8.18
 -20   1  -3    0.26    2.91
 -20  -1  -3   -2.18    3.03
 -20   1  -4  126.87    9.59
 -20  -1  -4  140.10    9.95
 -20   1  -5   29.18    4.51
 -20  -1  -5   31.25    4.54
 -20   1  -6   68.27    6.42
 -20  -1  -6   74.20    6.58
 -20   1  -7  109.45    8.06
 -20   1  -8   72.64    5.94
 -20  -1  -9   34.78    3.47
 -21  -1   0   15.62    2.37
 -21   1  -1   95.52    6.63
 -21  -1  -1  116.26    7.27
 -21   1  -2   23.08    2.97
 -21  -1  -2   25.40    3.16
 -21  -1  -3   90.75    6.24
 -21   1  -3   75.49    5.90
 -21  -1  -4   47.86    4.23
 -21   1  -4   37.94    3.86
 -21  -1  -5   84.43    6.01
 -21   1  -5   82.71    5.88
 -21  -1  -6   -0.13    1.40
   0   2   0 1357.34   67.02
   0   2   1   11.66    3.18
   0   2  -1    7.11    2.04
   0   2  -2 2642.18  135.09
   0   2   2 2843.79  136.24
   0   2  -3    9.30    3.32
   0   2  -4  648.62   35.73
   0  -2  -4  625.01   33.22
   0  -2  -5    4.76    2.61
   0   2  -5   10.76    3.96
   0   2  -6  873.08   49.42
   0  -2  -6  869.07   46.95
   0   2  -7   63.79    8.90
   0  -2  -7   66.78    7.78
   0   2  -8 1415.80   80.63
   0  -2  -8 1394.91   76.72
   0   2  -8 1520.10   79.89
   0   2  -9   64.73   10.69
   0  -2  -9   60.45    9.01
   0   2  -9   73.89   10.83
   0   2 -10 1533.58   87.78
   0  -2 -10 1507.72   85.57
   0   2 -10 1678.87   89.54
   0   2 -11   30.17   10.68
   0  -2 -11   14.73    7.24
   0  -2 -12  340.08   27.77
   0   2 -13    5.15    3.59
   0   2 -14   73.71    8.45
   0   2 -15   12.79    4.62
   0   2 -15   14.71    9.61
   0   2 -16    2.62    4.58
   0   2 -16   -1.99    9.33
   0  -2 -16   -4.09    5.27
   0   2 -16    0.51    5.01
   0   2 -17   -2.14    4.52
   0   2 -17    8.35   10.08
   0  -2 -17   -2.16    6.06
   0   2 -17   -4.85    6.72
   0  -2 -18  321.09   22.93
   0   2 -18  310.96   21.78
   0   2 -18  348.61   23.21
   0   2 -19    1.07    5.65
   0  -2 -19    8.69    5.98
   0   2 -19   18.97    5.39
   0  -2 -20   -7.66    5.70
   0   2 -20   -7.50    5.55
   0  -2 -21    1.82    4.92
   0   2 -21   -3.10    4.73
   0   2 -22   14.86    4.79
   0  -2 -22   22.93    4.64
   0  -2 -22   25.73    5.46
   0  -2 -23    0.91    2.56
   0   2 -23   -1.76    3.37
   0  -2 -23   -1.83    3.56
  -1   2   0   17.81    1.96
  -1  -2   0   20.22    2.17
   1   2   0   14.93    3.77
  -1   2  -1   14.33    3.01
  -1   2  -1   14.40    2.18
   1   2  -1    9.71    3.51
  -1   2  -1   19.97    3.03
  -1  -2  -1   17.96    2.27
   1   2   2 1410.31   70.96
  -1   2  -2 1343.32   69.73
  -1   2  -2 1386.70   70.13
   1  -2  -3 2011.24  100.13
  -1   2  -3 2049.67  103.21
  -1   2  -3 2117.40  101.94
   1   2   3 2025.90  103.11
   1  -2  -4  347.15   18.98
   1   2  -4  376.10   22.30
   1   2   4  340.69   20.90
  -1   2  -4  327.68   21.35
  -1   2  -4  333.76   19.32
  -1   2  -5 1078.21   56.86
   1   2  -5 1114.12   57.33
   1  -2  -5 1048.01   53.91
  -1   2  -5  996.54   52.98
   1  -2  -6 1778.77   89.95
   1   2  -6 1831.68   93.24
  -1   2  -6 1688.55   87.64
  -1   2  -6 1920.57   93.50
   1  -2  -7  123.17   10.01
   1   2  -7  107.64   10.93
   1   2  -7  134.13   12.37
  -1   2  -7  107.12   11.66
   1   2  -8   97.10   11.86
  -1   2  -8  101.34   12.24
  -1   2  -8   84.79   13.77
   1  -2  -8  103.41   10.27
   1   2  -8   80.75   10.10
  -1   2  -9   72.39   10.80
   1   2  -9   61.47    8.43
   1  -2  -9   52.48    8.33
   1   2  -9   48.15    9.99
  -1   2  -9   69.24   12.44
  -1   2 -10  803.62   51.87
   1  -2 -10  796.86   48.95
   1   2 -10  825.64   52.18
  -1   2 -10  843.22   54.20
  -1   2 -11 1911.12  106.38
   1  -2 -11 1845.31  102.75
  -1   2 -11 1908.92  107.54
   1  -2 -12    2.10    5.59
  -1   2 -13    9.62    3.89
   1   2 -13    6.75    3.39
   1  -2 -13   15.49    7.06
   1   2 -14  109.13   10.41
  -1  -2 -14  149.87   11.52
  -1   2 -14  125.19   11.25
   1  -2 -14   87.57   15.25
  -1   2 -15   42.16    7.12
   1   2 -15   33.46   12.34
   1   2 -15   35.07    6.18
  -1   2 -15   56.82   14.30
  -1  -2 -15   49.37    7.19
  -1   2 -15   54.74    7.51
  -1  -2 -16    0.51    5.03
  -1   2 -16   -6.60    5.92
  -1   2 -16    1.96    8.36
   1   2 -16   -2.00    8.22
  -1   2 -16    6.01    4.86
   1   2 -16    8.51    4.70
   1   2 -17  194.40   28.41
   1   2 -17  226.42   17.86
  -1   2 -17  291.12   19.47
  -1  -2 -17  255.29   19.02
  -1   2 -17  262.09   19.21
   1   2 -18   63.92    8.35
  -1   2 -18   69.58    8.51
   1   2 -18   60.09   16.13
   1  -2 -18   60.56    9.81
   1   2 -18   65.74    9.83
  -1  -2 -18   57.06    9.52
  -1   2 -18   67.65    9.59
   1  -2 -19  186.93   15.83
  -1   2 -19  172.52   14.56
   1   2 -19  173.88   15.37
  -1  -2 -19  190.49   15.52
  -1   2 -19  177.17   15.16
   1   2 -20    0.50    5.13
  -1   2 -20    4.43    4.95
  -1   2 -20   12.75    4.56
   1  -2 -20   -0.52    5.71
  -1  -2 -20    1.50    5.53
   1  -2 -21   32.64    6.55
  -1  -2 -21   29.93    6.54
  -1   2 -21   30.14    6.09
   1   2 -21   46.26    7.20
  -1   2 -22    4.07    4.02
   1  -2 -22    5.78    4.32
   1   2 -22    1.11    4.16
  -1  -2 -22    1.52    4.04
  -1  -2 -22    5.88    3.61
   1   2 -23    6.06    3.47
  -1   2 -23    5.25    3.54
  -1  -2 -23    7.83    3.90
  -1  -2 -23    8.18    3.00
   1  -2 -23    2.71    3.42
   1  -2 -23    4.68    2.90
  -2   2   0  201.97   12.12
  -2   2   0  208.32   14.09
  -2  -2   0  201.62   12.31
   2   2   0  178.25   13.57
  -2  -2  -1  592.97   31.08
  -2   2  -1  585.41   33.01
   2   2  -1  552.42   32.71
  -2   2  -1  567.53   30.69
  -2   2  -2  304.23   17.58
  -2  -2  -2  276.95   17.41
  -2   2  -2  293.96   18.09
  -2  -2  -3   31.26    4.61
  -2   2  -3   29.33    4.59
  -2   2  -3   35.46    5.38
   2   2   3   33.80    5.01
  -2   2  -4 3328.74  165.08
   2   2   4 3253.61  163.67
  -2   2  -5  178.84   14.46
   2   2   5  171.01   12.68
   2  -2  -5  179.32   12.15
  -2   2  -6   46.52    7.38
   2   2  -6   30.27    6.98
   2   2  -6   37.01    4.66
   2  -2  -6   32.99    5.20
  -2   2  -7  309.03   23.14
   2   2  -7  301.03   18.74
   2   2  -7  350.36   24.17
   2  -2  -7  312.01   20.59
   2  -2  -8  191.26   16.05
   2   2  -8  215.82   19.14
  -2   2  -9   19.51    7.16
   2  -2  -9   16.48    4.96
   2   2  -9   29.90    8.09
  -2   2  -9   21.97    8.75
   2  -2 -10 1809.60   98.87
   2   2 -10 1840.75  102.51
  -2   2 -10 1852.39  106.85
  -2   2 -10 1853.01  102.73
  -2   2 -11  689.83   46.81
   2  -2 -11  665.95   43.46
  -2   2 -11  674.34   36.62
  -2  -2 -11  676.11   36.65
  -2   2 -11  617.91   48.36
  -2   2 -12 1062.10   57.14
  -2   2 -12 1099.16   56.81
  -2  -2 -12 1110.92   56.86
   2  -2 -12  975.94   64.01
  -2   2 -12 1026.96   70.24
  -2   2 -13   34.50    5.86
  -2   2 -13   32.72    5.92
   2  -2 -13   49.20   10.78
  -2  -2 -13   26.47    5.61
  -2  -2 -14   13.78    5.04
   2   2 -14   22.20    4.80
   2  -2 -14   17.41    8.40
  -2   2 -14   19.18    5.27
  -2   2 -14   18.12    4.85
   2   2 -15  158.44   13.48
  -2   2 -15  206.14   14.72
  -2  -2 -15  184.40   14.33
  -2   2 -15  171.98   14.46
   2   2 -15  171.09   23.89
   2  -2 -15  144.77   20.30
  -2  -2 -16  281.98   18.82
   2   2 -16  217.25   17.20
   2   2 -16  198.78   28.25
  -2   2 -16  256.43   18.67
  -2   2 -16  260.67   18.36
  -2   2 -17    4.74    5.88
   2   2 -17    6.37   10.80
  -2   2 -17   10.38    5.80
  -2  -2 -17   -3.67    6.26
  -2   2 -18  661.61   37.66
  -2   2 -18  608.59   37.15
   2   2 -18  552.25   51.82
  -2  -2 -18  626.99   37.46
   2   2 -19   76.12   10.11
  -2   2 -19   84.62    9.86
   2  -2 -19   73.81   10.19
  -2  -2 -19   75.16    9.75
  -2   2 -19   85.64   10.07
  -2   2 -20   56.72    8.00
   2   2 -20   36.60    7.13
   2  -2 -20   48.71    8.17
  -2   2 -20   56.69    7.61
  -2  -2 -20   55.85    8.05
  -2  -2 -21    5.63    4.10
  -2  -2 -21   -1.75    4.75
   2   2 -21   11.51    5.28
   2  -2 -21   -0.46    4.50
  -2   2 -21    1.29    4.38
  -2  -2 -22    4.48    4.08
   2  -2 -22    2.66    4.27
   2   2 -22    0.73    4.06
  -2   2 -22    2.55    3.85
  -2  -2 -22    7.07    3.64
   2  -2 -23   13.14    4.03
   2   2 -23   14.03    3.95
  -2  -2 -23   12.31    3.86
  -2  -2 -23   10.61    2.98
   2  -2 -23   11.02    2.96
  -2   2 -23   13.93    3.91
  -3   2   0    2.36    2.38
  -3  -2   0    3.84    2.77
   3   2   0    1.85    2.50
  -3   2   0    3.72    2.93
  -3   2  -1 2177.55  108.82
   3   2  -1 1965.87  109.71
  -3  -2  -1 2275.79  109.45
  -3   2   1 2216.69  109.07
  -3   2  -1 2121.55  110.02
  -3  -2   1 2194.61  109.44
  -3  -2  -2   11.95    3.77
  -3   2  -2    5.64    3.10
  -3  -2  -3 4494.60  222.23
  -3   2  -3 4452.01  221.86
  -3   2  -4   17.62    4.97
  -3  -2  -4   12.07    4.31
  -3   2  -5 5550.63  271.96
  -3   2  -5 5420.60  272.45
  -3  -2  -5 5413.00  272.16
   3   2   5 5483.11  269.75
   3   2   6   22.60    4.40
  -3   2  -6   20.72    5.99
   3  -2  -7   14.21    4.52
  -3   2  -7   11.43    5.38
  -3   2  -8    5.75    2.66
  -3  -2  -8    2.84    2.41
   3   2  -8   10.85    6.51
   3  -2  -8    3.55    3.81
  -3   2  -8    3.46    5.30
   3  -2  -9 2359.89  130.65
  -3   2  -9 2512.25  134.85
  -3   2  -9 2551.47  125.44
   3   2  -9 2517.45  135.32
  -3  -2  -9 2539.64  125.40
  -3   2  -9 2641.53  143.08
  -3   2 -10   56.82    5.96
  -3   2 -10   47.40   10.91
   3  -2 -10   64.58   10.21
  -3  -2 -10   58.56    6.10
  -3   2 -10   36.30   12.61
   3  -2 -11 2518.34  139.67
  -3   2 -11 2621.69  132.21
  -3   2 -11 2626.22  143.99
  -3  -2 -11 2706.19  132.31
  -3   2 -11 2689.48  150.06
  -3   2 -12   13.52    4.89
   3  -2 -12   13.99    6.62
  -3   2 -12   12.51    4.49
  -3   2 -12   18.26   10.81
  -3  -2 -12    9.26    4.64
  -3  -2 -13  696.39   38.19
   3  -2 -13  623.59   46.19
  -3   2 -13  698.40   38.13
  -3   2 -13  608.42   52.04
  -3   2 -13  674.51   38.71
  -3   2 -14   35.22    5.95
   3   2 -14   23.04    4.84
  -3   2 -14   32.39    6.42
   3  -2 -14   36.72   10.58
   3   2 -14   29.65   12.31
  -3  -2 -14   24.35    5.46
   3  -2 -15   25.10   10.04
  -3   2 -15   33.19    6.96
  -3   2 -15   31.52    6.36
   3   2 -15   34.30   11.96
  -3  -2 -15   26.30    5.83
  -3   2 -16    3.99    5.37
  -3  -2 -16    8.46    5.36
  -3   2 -16   15.10    5.85
   3   2 -16    2.05   11.17
  -3   2 -17 1339.20   70.93
  -3   2 -17 1353.95   71.72
  -3  -2 -17 1313.69   70.84
   3   2 -17 1160.44   86.71
  -3  -2 -18    6.75    6.32
  -3   2 -18   12.23    6.27
  -3   2 -18   11.43    6.60
   3   2 -18   10.74   11.98
   3  -2 -19  238.38   19.03
   3   2 -19  236.32   18.86
  -3   2 -19  284.32   19.51
  -3   2 -19  267.75   19.05
  -3  -2 -19  265.12   18.98
  -3  -2 -20    4.26    5.26
  -3   2 -20   13.71    5.35
  -3   2 -20    7.06    4.86
  -3  -2 -20    9.12    4.82
   3  -2 -20    1.54    5.00
   3   2 -20    6.43    5.32
  -3   2 -21   39.49    6.61
  -3  -2 -21   36.64    6.66
  -3   2 -21   30.39    5.71
   3   2 -21   34.59    6.50
  -3  -2 -21   53.87    6.64
   3  -2 -21   23.88    6.31
   3   2 -22   -5.33    4.65
  -3  -2 -22   -3.59    4.40
  -3   2 -22   -5.63    4.31
  -3  -2 -22    3.12    3.25
   3  -2 -22   -3.70    4.76
  -3  -2 -23   10.85    2.81
   3  -2 -23   10.37    2.92
   4   2   0 1555.10   83.61
  -4   2   0 1671.34   84.26
  -4   2   0 1624.30   83.76
  -4  -2   0 1671.85   84.70
  -4  -2  -1  377.06   23.95
  -4   2  -1  365.57   23.35
  -4  -2   1  394.35   24.26
  -4   2   1  388.26   23.75
  -4  -2  -2 2014.36  103.82
  -4   2  -2 2001.92  103.23
  -4  -2  -3  326.19   22.10
  -4   2  -3  323.68   21.62
  -4  -2  -4 8081.07  402.89
  -4   2  -4 8243.77  402.57
  -4   2  -5  206.09   16.97
  -4  -2  -5  214.02   17.30
  -4  -2  -6  563.20   35.54
  -4   2  -6  551.11   35.20
   4   2   6  546.54   31.82
   4   2   7  738.57   41.50
  -4   2  -7  764.35   39.43
  -4  -2  -7  755.44   39.36
   4  -2  -8  333.78   23.47
  -4   2  -8  312.65   18.46
  -4  -2  -8  318.24   18.47
  -4   2  -9   12.99    3.47
   4   2  -9   14.28    7.73
   4  -2  -9   10.64    5.96
  -4  -2  -9   13.14    3.52
  -4   2  -9   16.25   11.46
  -4  -2 -10 1936.81   96.77
  -4   2 -10 1916.99   96.75
   4  -2 -10 1799.60  103.36
  -4   2 -10 2062.74  117.29
  -4  -2 -11  701.24   37.89
   4  -2 -11  653.41   44.78
  -4   2 -11  696.75   37.85
  -4   2 -11  652.54   53.56
   4  -2 -12 1765.23  103.13
  -4   2 -12 1753.78   94.89
  -4  -2 -12 1900.72   94.44
  -4   2 -12 1904.88   94.43
  -4   2 -12 1850.81  114.01
  -4  -2 -13   29.45    5.72
  -4   2 -13   48.85   15.16
  -4   2 -13   26.55    5.33
   4  -2 -13   25.04    8.78
  -4   2 -13   40.69    6.47
   4  -2 -13   23.58    5.15
  -4  -2 -14   10.54    4.52
   4   2 -14   16.06   10.16
  -4   2 -14    4.27    4.31
   4  -2 -14   11.88    4.12
  -4   2 -14    6.58    4.56
   4  -2 -14    9.72    6.71
  -4  -2 -15  260.55   18.49
   4  -2 -15  215.16   26.46
   4   2 -15  289.69   31.62
  -4   2 -15  264.80   18.70
  -4   2 -15  270.57   19.54
   4   2 -16  396.84   39.96
  -4   2 -16  394.94   25.58
  -4  -2 -16  414.64   25.88
  -4   2 -16  385.62   26.25
  -4  -2 -17    7.62    5.77
   4   2 -17   12.78   13.28
  -4   2 -17   10.36    6.29
  -4   2 -17    7.14    5.70
  -4   2 -18  515.34   32.03
   4   2 -18  429.42   44.62
  -4   2 -18  538.92   31.63
  -4  -2 -18  476.97   30.95
  -4  -2 -18  528.64   31.25
  -4   2 -19   73.27    9.58
  -4   2 -19   60.37    8.94
  -4  -2 -19   82.66    9.27
  -4  -2 -19   65.77    9.10
  -4  -2 -20  129.74   10.97
  -4   2 -20   99.43   11.10
   4   2 -20  119.69   11.30
   4  -2 -20   97.26   10.83
  -4   2 -20  116.59   11.05
  -4  -2 -20  127.11   11.23
   4   2 -21   -1.25    4.70
  -4   2 -21    0.41    4.09
  -4   2 -21   -2.42    4.31
   4  -2 -21   -2.18    4.57
  -4  -2 -21   -1.52    3.40
  -4  -2 -21    0.41    4.17
  -4  -2 -22    6.80    3.90
   4  -2 -22    5.66    4.44
   4   2 -22    8.50    4.07
  -4   2 -22    4.68    3.72
  -4  -2 -22    9.16    3.54
  -4  -2 -23   19.54    3.07
   4  -2 -23   11.43    2.82
  -5   2   0  159.71   12.06
  -5  -2   0  157.59   13.67
   5   2   0  158.72   12.19
  -5   2   0  167.71   13.54
  -5  -2  -1  256.27   19.00
  -5   2  -1  244.83   18.32
  -5   2   1  268.41   18.84
   5   2   1  227.84   16.55
  -5   2   1  270.89   17.19
  -5  -2   1  297.19   19.90
  -5   2  -2 2658.55  135.62
  -5  -2  -2 2629.53  136.13
  -5   2   2 2678.48  135.96
  -5  -2   2 2613.58  136.29
  -5   2  -3 1106.53   61.29
  -5  -2  -3 1097.44   61.79
  -5   2  -4   39.26    7.37
  -5  -2  -4   57.10    8.82
  -5  -2  -5 1042.61   58.64
  -5   2  -5  966.85   57.35
  -5  -2  -6 3271.99  159.93
   5   2   6 2859.03  153.53
  -5  -2  -6 3107.24  150.75
  -5   2  -6 3084.28  158.50
  -5   2  -6 3049.01  150.75
   5   2   7  243.83   18.09
  -5  -2  -7  297.90   16.76
  -5   2  -7  290.93   23.13
  -5  -2  -7  285.50   23.65
  -5   2  -7  284.37   16.66
  -5   2  -8    2.81    2.65
  -5  -2  -8    1.76    2.64
   5  -2  -9    5.15    5.61
  -5   2  -9    1.41    3.09
  -5  -2  -9    1.67    2.91
  -5   2  -9   -8.12   10.06
  -5  -2 -10 1187.51   60.27
  -5   2 -10 1232.78   81.42
   5  -2 -10 1108.48   67.40
  -5   2 -10 1132.26   60.10
  -5   2 -11 1275.97   70.52
   5  -2 -11 1235.14   77.59
  -5   2 -11 1389.84   69.94
  -5   2 -11 1442.31   91.77
  -5  -2 -11 1389.41   69.90
  -5  -2 -12    7.20    4.05
  -5   2 -12    2.35    3.63
   5  -2 -12    8.20    5.81
  -5  -2 -12    3.59    4.41
  -5   2 -12    3.40    3.66
  -5   2 -12    8.99   10.23
  -5  -2 -13   13.22    4.63
  -5  -2 -13   12.62    5.56
  -5   2 -13   11.96    4.43
   5   2 -13   15.27   10.42
  -5   2 -13    7.00    9.96
   5  -2 -13   19.48    8.39
  -5   2 -13   10.24    4.56
   5  -2 -13   24.15    5.38
   5  -2 -14  362.70   22.67
  -5   2 -14  333.17   22.97
  -5  -2 -14  337.77   24.31
   5  -2 -14  310.03   30.66
  -5  -2 -14  349.79   22.37
   5   2 -14  337.12   34.12
  -5   2 -14  333.96   22.19
  -5   2 -14  358.93   38.85
  -5  -2 -15   22.32    6.14
  -5   2 -15   25.14    5.99
   5   2 -15   23.53   11.85
  -5   2 -15   15.24    5.74
   5  -2 -15   23.52    5.53
   5  -2 -15   16.63    9.62
  -5  -2 -15   12.48    5.96
  -5  -2 -16   28.77    6.25
  -5   2 -16   27.30    6.63
  -5  -2 -16   17.42    6.90
  -5   2 -16   39.83    7.82
   5   2 -16   28.80   13.31
  -5  -2 -16   29.46    6.34
  -5   2 -17  117.04   12.46
   5   2 -17   84.28   20.42
  -5   2 -17  104.91   11.03
  -5  -2 -17  116.33   11.16
  -5  -2 -17   95.52   10.80
  -5  -2 -18   42.83    7.87
  -5   2 -18   54.58    8.36
  -5   2 -18   48.72    8.63
  -5  -2 -18   47.56    7.71
  -5   2 -19  183.02   14.95
  -5  -2 -19  198.77   14.89
  -5  -2 -19  193.11   15.30
  -5   2 -19  177.70   15.57
  -5  -2 -20    4.41    4.48
  -5  -2 -20   10.29    4.49
  -5   2 -20    6.61    4.75
  -5   2 -20    9.58    5.39
   5  -2 -20   11.59    5.48
   5   2 -21   28.92    5.79
  -5   2 -21   24.30    5.51
  -5  -2 -21   25.39    5.52
  -5   2 -21   19.51    5.44
  -5  -2 -21   25.21    5.12
   5  -2 -21   34.80    6.17
  -5   2 -22   20.48    4.21
  -5   2 -22   31.65    5.17
   5   2 -22   20.30    4.70
  -5  -2 -22   26.73    4.99
   5  -2 -22   24.84    5.03
  -5  -2 -22   22.43    4.08
  -6   2   0 3412.33  173.59
  -6  -2   0 3393.96  174.11
  -6   2  -1   28.10    6.39
  -6   2   1   27.05    6.09
  -6  -2   1   26.00    5.80
   6   2   1   20.32    3.99
  -6   2   1   20.42    4.08
  -6  -2  -1   12.56    5.06
  -6   2   2  169.86   15.20
  -6   2   2  155.87   12.13
  -6   2  -2  175.95   15.14
  -6  -2  -2  154.19   15.10
  -6  -2   2  163.56   15.33
   6   2   2  154.10   12.02
  -6   2  -3  345.59   25.32
  -6  -2  -3  373.80   26.36
  -6  -2  -4    6.52    5.00
  -6   2  -4    6.80    4.31
  -6  -2  -5  683.83   41.50
  -6   2  -5  680.02   40.72
  -6   2  -5  591.16   32.82
  -6  -2  -5  623.30   33.03
  -6   2  -6   48.44    9.27
  -6  -2  -6   53.15    9.89
  -6   2  -6   39.45    4.84
  -6  -2  -6   45.82    4.88
   6   2   7   22.46    4.81
  -6   2  -7   32.37    4.50
  -6   2  -7   26.70    7.74
  -6  -2  -7   34.86    9.08
  -6  -2  -7   36.15    4.65
  -6   2  -8 1945.22   95.97
  -6  -2  -8 1886.25  106.32
  -6  -2  -8 1863.22   95.77
  -6   2  -9  381.23   22.18
  -6  -2  -9  362.56   22.00
  -6   2  -9  390.23   39.95
  -6   2 -10  257.22   17.73
  -6   2 -10  272.51   17.33
   6  -2 -10  247.24   23.39
  -6  -2 -10  269.09   17.23
  -6   2 -10  285.98   34.20
  -6   2 -11   22.11    4.95
  -6   2 -11   16.67   13.60
  -6   2 -11   30.20    4.82
  -6  -2 -11   23.15    5.90
   6  -2 -11   19.37    7.55
  -6   2 -11   27.75    5.47
  -6  -2 -11   26.42    5.17
  -6   2 -12   36.80    5.86
  -6   2 -12   32.49    4.98
  -6   2 -12   28.78    4.85
  -6  -2 -12   35.98    7.42
   6  -2 -12   34.86    9.52
  -6   2 -12   51.79   17.14
  -6   2 -12   31.13    5.89
  -6  -2 -12   27.61    5.32
   6  -2 -13   14.83    8.31
  -6   2 -13   17.17    4.09
  -6  -2 -13   25.10    5.89
  -6  -2 -13   13.92    5.71
  -6   2 -13   15.23   13.26
  -6   2 -13   22.98    5.90
   6   2 -13   37.02   13.18
  -6   2 -13   17.79    4.29
  -6  -2 -13   20.13    5.09
  -6   2 -13   15.96    5.09
   6  -2 -14  407.08   25.64
  -6  -2 -14  413.37   25.28
  -6  -2 -14  376.32   27.04
  -6   2 -14  412.43   25.32
   6  -2 -14  362.67   34.39
   6   2 -14  425.37   39.30
  -6   2 -14  370.01   25.72
  -6  -2 -14  389.28   25.06
  -6   2 -14  421.77   43.97
   6  -2 -15   83.46    9.30
  -6  -2 -15   62.83    9.90
   6   2 -15   59.49   15.24
  -6  -2 -15   82.74    9.09
  -6   2 -15   83.19   10.48
  -6   2 -15   73.52    9.10
  -6  -2 -15   75.16    9.19
   6   2 -16   84.22   18.68
  -6   2 -16   80.43    9.85
  -6  -2 -16   79.96    9.87
   6  -2 -16   92.00    9.38
  -6   2 -16   73.85   10.24
  -6  -2 -16   82.00    9.47
  -6  -2 -16   78.17   10.83
  -6  -2 -17    0.51    5.66
  -6   2 -17    8.20    6.46
  -6   2 -17   -5.57    5.61
   6   2 -17   -4.14   11.55
  -6  -2 -17    5.75    5.34
  -6  -2 -17    7.70    4.71
  -6   2 -18  152.84   14.36
  -6  -2 -18  149.76   13.46
  -6   2 -18  166.20   13.95
  -6  -2 -18  175.70   13.87
  -6  -2 -19    8.33    4.76
  -6   2 -19    6.03    4.92
  -6   2 -19   13.70    5.79
  -6  -2 -19   10.64    4.87
  -6  -2 -20   12.68    4.68
  -6   2 -20   15.97    5.69
  -6   2 -20   18.32    5.03
  -6  -2 -20    7.90    4.98
  -6  -2 -21   14.12    4.34
  -6   2 -21   14.55    4.72
  -6   2 -21   12.48    4.67
  -6  -2 -21   12.12    4.60
   6   2 -21   14.42    4.93
   6  -2 -21   12.75    5.11
  -6   2 -22   52.35    5.73
   6  -2 -22   49.52    6.31
   6   2 -22   41.40    5.88
  -7   2   0   86.09   11.02
  -7  -2   0   85.76   11.07
  -7  -2  -1  768.38   46.24
  -7   2  -1  774.12   45.80
  -7  -2   1  734.82   46.18
  -7  -2  -1  718.36   38.45
  -7   2   1  746.81   45.66
  -7   2   2 1068.20   59.85
  -7  -2  -2 1218.80   67.25
  -7   2   2 1301.38   67.50
  -7  -2   2 1211.51   67.45
  -7  -2  -2 1189.69   58.78
   7   2   2 1048.74   59.97
  -7   2  -2 1166.20   58.58
  -7   2  -2 1209.65   66.53
  -7  -2  -3  258.43   21.82
  -7   2   3  218.50   20.45
  -7   2  -3  241.87   20.95
  -7  -2   3  234.06   21.14
  -7   2  -3  266.03   15.05
  -7  -2  -3  246.80   15.12
  -7   2  -4  388.48   28.72
  -7  -2  -4  380.27   29.12
  -7   2  -5  134.29   15.31
  -7  -2  -5  122.05   15.17
  -7   2  -6 1007.72   59.36
  -7  -2  -6  986.03   60.03
  -7   2  -6  960.91   49.94
  -7  -2  -6  932.40   49.80
  -7  -2  -7  951.56   57.57
   7   2   7  807.95   49.14
  -7   2  -7  955.93   56.73
  -7   2  -7  903.55   46.82
  -7  -2  -7  878.98   46.73
  -7   2  -8   60.88   12.02
  -7  -2  -8   39.46   10.94
  -7   2  -8   62.50    6.75
  -7  -2  -8   74.58    7.13
  -7   2  -9  131.23   10.23
  -7  -2  -9  111.89    9.76
  -7   2  -9  148.88   25.47
  -7  -2 -10   83.03   10.26
  -7   2 -10   89.02    9.05
   7  -2 -10   78.40   13.42
  -7   2 -10   96.69    8.85
  -7  -2 -10  105.27    9.03
  -7   2 -10   78.36    8.39
  -7   2 -10   93.75   20.64
  -7  -2 -11  201.92   14.10
  -7   2 -11  201.31   13.92
  -7   2 -11  195.06   14.71
  -7   2 -11  209.35   14.22
  -7  -2 -11  146.55   15.05
  -7   2 -11  143.91   27.76
  -7   2 -11  175.21   13.25
   7  -2 -11  136.24   18.58
  -7  -2 -12   65.38    7.89
  -7   2 -12   64.12    8.47
  -7  -2 -12   56.91    9.00
  -7   2 -12   65.66    7.33
  -7   2 -12   59.08   18.08
   7   2 -12   65.81   15.19
   7  -2 -12   44.86   11.35
  -7   2 -12   58.28    7.03
  -7  -2 -12   74.20    8.23
  -7   2 -12   72.17    8.05
   7   2 -13  329.36   31.30
  -7   2 -13  242.18   17.58
  -7   2 -13  186.33   14.99
  -7  -2 -13  246.30   18.87
  -7  -2 -13  220.44   16.33
   7  -2 -13  250.77   25.82
  -7   2 -13  216.55   16.31
  -7  -2 -13  222.50   16.12
  -7   2 -13  198.91   15.15
  -7   2 -13  307.11   37.25
  -7  -2 -14    3.35    4.81
   7  -2 -14    8.68    5.21
   7  -2 -14    4.42    7.12
  -7  -2 -14    8.38    4.17
  -7   2 -14   -2.86    5.12
  -7   2 -14    5.37    5.05
   7   2 -14    7.72    9.32
  -7   2 -14    4.89    3.45
  -7   2 -14   11.01   14.01
  -7  -2 -14   23.61    6.21
  -7  -2 -15  195.47   17.72
  -7   2 -15  192.71   16.73
  -7  -2 -15  199.67   15.56
   7  -2 -15  222.49   16.33
   7   2 -15  205.52   27.69
  -7   2 -15  201.39   16.04
  -7  -2 -15  177.19   15.33
  -7  -2 -16   16.04    5.38
  -7   2 -16    9.04    5.56
  -7  -2 -16    9.06    5.94
  -7  -2 -16   12.65    6.54
  -7   2 -16   30.69    7.49
   7   2 -16   10.17   10.63
   7  -2 -16   20.13    5.11
   7   2 -17   70.58   17.07
  -7   2 -17   97.44   11.12
  -7  -2 -17   51.45    9.13
  -7  -2 -17   82.01    9.13
  -7   2 -17   69.61    9.29
  -7  -2 -17   73.54    9.29
  -7   2 -18   11.42    5.61
  -7  -2 -18   10.44    5.77
  -7  -2 -18    8.15    5.08
  -7   2 -18   20.18    6.56
  -7  -2 -18   18.86    5.62
  -7   2 -19   73.26    8.60
  -7   2 -19   63.65    9.18
  -7  -2 -19   80.58    8.63
  -7  -2 -19   73.42    8.47
  -7   2 -20    4.84    4.97
  -7  -2 -20   10.69    4.45
   7  -2 -21   73.00    8.09
   7   2 -21   73.87    7.73
  -7   2 -21   74.76    8.11
  -7   2 -22    1.28    2.64
  -8   2   0  815.28   49.82
  -8  -2   0  801.32   41.34
  -8  -2   0  764.79   49.71
  -8   2   0  763.77   41.01
  -8   2   1  324.49   25.65
  -8  -2  -1  313.36   18.54
  -8   2  -1  302.94   18.18
  -8   2  -1  336.35   25.82
  -8  -2   1  340.96   26.54
  -8  -2  -1  314.73   26.20
  -8  -2  -2   25.71    8.28
  -8   2   2   33.06    8.52
  -8   2  -2   49.29    9.22
  -8  -2   2   35.65    9.20
  -8   2  -2   33.08    4.43
  -8  -2  -2   34.91    4.59
  -8   2  -3  411.45   31.27
  -8  -2  -3  452.16   23.87
  -8  -2   3  412.52   31.51
  -8  -2  -3  451.91   32.55
  -8   2   3  331.37   23.14
  -8   2   3  429.72   31.46
  -8   2  -3  464.92   23.77
  -8   2  -4  885.57   53.25
  -8   2   4  784.60   52.70
  -8  -2   4  808.36   53.18
  -8  -2  -4  850.04   54.22
  -8   2   5    4.56    6.51
  -8   2  -5   23.47    7.60
  -8  -2   5    4.62    6.60
  -8  -2  -5   21.63    7.79
  -8  -2  -6  182.70   20.10
  -8   2  -6  174.38   19.53
  -8  -2  -7  392.86   32.70
  -8   2  -7  395.39   32.15
  -8  -2  -8  159.95   13.54
  -8   2  -8  145.99   17.83
  -8   2  -8  130.38   11.41
  -8  -2  -8  150.74   18.77
  -8  -2  -8  134.57   10.95
  -8   2  -8  149.19   11.35
  -8  -2  -8  140.27   11.17
  -8   2  -8  131.51   11.28
  -8   2  -9    5.39    3.81
  -8  -2  -9    5.36    4.55
  -8   2  -9    8.12   11.92
  -8   2  -9    0.74    3.39
  -8  -2  -9    1.46    3.62
  -8  -2 -10  336.35   24.84
  -8   2 -10  392.89   23.42
  -8  -2 -10  402.17   23.31
  -8   2 -10  362.89   42.65
  -8   2 -10  390.46   23.25
  -8  -2 -10  330.52   22.22
   8  -2 -11  282.50   27.68
  -8  -2 -11  241.84   17.92
  -8   2 -11  289.79   19.20
  -8  -2 -11  307.28   22.12
  -8   2 -11  313.48   20.66
  -8   2 -11  297.54   38.66
  -8   2 -11  306.55   19.58
  -8  -2 -11  316.18   19.77
  -8   2 -12  207.67   15.96
  -8   2 -12  219.87   14.90
  -8  -2 -12  185.75   16.83
   8   2 -12  171.22   24.21
  -8  -2 -12  214.49   15.17
  -8   2 -12  164.90   29.46
  -8  -2 -12  203.18   15.04
  -8   2 -12  187.16   14.74
  -8  -2 -13    0.94    5.03
   8   2 -13    1.90    8.36
  -8   2 -13   11.31    5.71
  -8   2 -13   -0.94    4.88
  -8  -2 -13    9.40    5.15
   8  -2 -13    7.27    7.40
  -8  -2 -13   13.79    5.05
  -8   2 -13    5.32    4.01
  -8   2 -13    2.94   11.58
  -8  -2 -14  103.27   12.83
  -8   2 -14  117.89   12.20
  -8   2 -14  103.81   10.72
  -8  -2 -14  106.04   10.74
  -8  -2 -14  101.73   10.89
  -8   2 -14  148.55   27.02
   8   2 -14  121.44   20.84
  -8  -2 -15  137.92   14.77
  -8  -2 -15  142.49   12.88
   8  -2 -15  142.66   13.09
  -8   2 -15  139.14   13.94
   8   2 -15  125.70   21.88
  -8  -2 -15  154.79   13.05
  -8   2 -15  127.09   12.46
   8  -2 -16   49.54    7.25
  -8   2 -16   45.09    7.72
  -8   2 -16   60.83    9.42
  -8  -2 -16   29.79    6.82
  -8  -2 -16   31.39    8.32
  -8  -2 -16   50.51    7.73
  -8  -2 -17    9.30    6.05
   8  -2 -17    0.40    3.47
  -8   2 -17    5.04    5.83
  -8  -2 -17    0.48    4.86
  -8  -2 -17    1.50    4.65
  -8   2 -17   -1.44    4.86
  -8  -2 -18  305.39   20.17
  -8  -2 -18  266.43   20.87
  -8   2 -18  316.39   21.90
  -8  -2 -19   36.66    6.62
  -8   2 -19   42.13    7.89
  -8  -2 -19   52.95    6.94
  -8   2 -20   25.82    6.20
  -8   2 -21   -2.15    3.49
   8   2 -21    3.60    3.90
   8  -2 -21    3.45    4.19
  -8   2 -22   14.70    3.24
  -9  -2   0   -3.52    7.32
  -9   2   0    2.22    6.43
  -9   2   0    4.20    2.63
  -9  -2   0    2.97    2.49
  -9  -2  -1   78.78   13.07
  -9   2  -1   60.89   11.56
  -9   2  -1   65.27    6.44
  -9  -2   1   70.83   12.49
  -9   2   1   61.66   11.69
  -9  -2  -1   62.11    6.43
  -9  -2  -2  149.54   18.49
  -9   2   2  138.13   17.35
  -9  -2   2  151.32   18.36
  -9   2  -2  178.12   18.88
  -9  -2  -2  172.51   11.97
  -9   2  -2  162.43   11.38
  -9   2   3 1291.59   75.31
  -9  -2  -3 1167.93   74.67
  -9  -2   3 1197.47   75.06
  -9   2  -3 1214.47   74.67
  -9   2  -3 1261.64   64.28
  -9  -2  -3 1256.22   64.49
  -9  -2   4   12.36    7.07
  -9   2  -4   16.52    7.51
  -9   2   4   15.73    6.78
  -9  -2  -4   11.29    6.88
  -9   2  -5  650.35   44.82
  -9  -2  -5  622.77   45.69
  -9  -2   5  622.78   45.36
  -9   2   5  630.02   45.48
  -9  -2  -6   20.03    5.85
  -9  -2   6    9.53    7.49
  -9   2  -6   16.60    8.40
  -9   2   6   13.51    8.33
  -9  -2  -6   28.53    9.45
  -9  -2  -6   24.70    4.45
  -9  -2  -7  323.53   29.44
  -9   2  -7  293.70   19.98
  -9  -2  -7  293.05   21.13
  -9   2  -7  342.13   29.45
  -9  -2  -7  301.64   19.86
  -9  -2  -7  297.95   19.15
  -9   2  -7  271.90   19.22
  -9   2  -8   10.48    3.85
  -9  -2  -8    1.50    6.81
  -9  -2  -8    7.87    4.87
  -9  -2  -8    7.29    3.82
  -9   2  -8   -2.81    6.96
  -9   2  -8    1.37    3.49
  -9  -2  -8    3.76    3.33
  -9   2  -8   14.20   13.71
  -9  -2  -9  306.91   21.49
  -9   2  -9  370.92   23.08
  -9   2  -9  435.52   34.65
  -9  -2  -9  339.02   32.60
  -9  -2  -9  329.57   24.14
  -9   2  -9  363.61   22.72
  -9   2  -9  379.97   43.87
  -9  -2 -10   33.79    5.79
  -9  -2 -10   43.98    7.81
  -9   2 -10   38.01    6.44
  -9   2 -11  282.08   18.38
   9  -2 -11  234.21   25.81
  -9   2 -11  213.20   35.34
  -9  -2 -11  253.76   17.30
  -9  -2 -11  254.70   20.33
  -9  -2 -12   11.88    4.19
  -9  -2 -12   26.93    7.58
  -9   2 -12    9.35    5.30
   9  -2 -12   20.48    9.00
  -9   2 -12   17.83    5.75
  -9  -2 -12   21.42    5.58
   9   2 -12   19.02   11.48
  -9   2 -12   17.47    5.23
  -9   2 -12   12.33   14.48
  -9   2 -13  200.81   14.37
   9  -2 -13  148.93   21.08
  -9   2 -13  163.94   30.16
  -9  -2 -13  187.59   14.83
  -9   2 -13  181.40   16.03
  -9   2 -13  200.47   15.23
   9   2 -13  153.82   23.98
  -9  -2 -13  173.72   16.90
   9   2 -14   65.16   15.79
  -9  -2 -14   57.41   10.11
  -9   2 -14   47.66    8.91
  -9  -2 -14   64.72    8.62
  -9   2 -14   66.72   20.00
  -9   2 -14   47.90    6.84
   9  -2 -15   91.33   10.48
  -9   2 -15   95.31   11.56
  -9  -2 -15   94.24   12.37
   9   2 -15   88.92   18.69
  -9  -2 -15   96.25   10.28
  -9  -2 -16   18.24    5.42
   9  -2 -16   17.35    5.47
  -9  -2 -16   17.86    7.10
  -9   2 -16   19.97    7.01
  -9   2 -17  353.66   22.84
  -9  -2 -17  343.29   20.98
   9  -2 -17  255.38   18.81
  -9  -2 -17  277.33   22.03
  -9  -2 -18   19.71    6.39
  -9  -2 -18   31.26    5.89
  -9   2 -18   22.31    6.96
  -9  -2 -19   76.66    8.98
  -9   2 -19   98.51   10.34
  -9   2 -20    9.79    4.77
  -9   2 -21    9.56    3.83
 -10  -2   0  144.27   18.46
 -10   2   0  150.12   10.95
 -10  -2   0  131.06   10.64
 -10   2   0  136.66   18.22
 -10   2  -1   37.70    5.33
 -10  -2   1   51.21    6.08
 -10  -2  -1   38.35   11.01
 -10   2  -1   36.19   10.62
 -10   2   1   48.21    5.85
 -10  -2  -1   47.57    5.85
 -10   2   1   42.90   10.15
 -10  -2   1   39.54   10.62
 -10   2  -2   26.33    9.38
 -10   2   2   38.22   10.62
 -10   2  -2   30.91    5.08
 -10  -2   2   27.40    9.62
 -10  -2  -2   42.06    5.88
 -10  -2  -2   32.15   11.02
 -10  -2  -3  245.47   15.91
 -10  -2  -3  254.32   25.28
 -10   2   3  212.70   23.43
 -10  -2   3  200.86   23.06
 -10  -2  -3  209.99   17.28
 -10   2  -3  245.93   15.77
 -10   2  -3  240.66   24.57
 -10  -2   4 1724.24  101.81
 -10   2  -4 1664.07   91.12
 -10   2  -4 1809.82  101.92
 -10   2   4 1808.03  102.28
 -10  -2  -4 1889.51  104.08
 -10  -2  -5   32.16    7.00
 -10  -2   5   23.79    6.56
 -10   2  -5   25.23    5.67
 -10   2  -5   30.40    9.52
 -10  -2  -5   29.32    9.95
 -10  -2   5   14.35    9.32
 -10   2   5   17.02    9.36
 -10   2  -5   31.08    5.45
 -10   2  -6  176.53   21.57
 -10  -2  -6  178.13   15.20
 -10   2  -6  169.08   13.62
 -10  -2   6  173.16   21.58
 -10  -2   6  158.74   14.46
 -10  -2  -6  199.36   15.51
 -10   2   6  165.94   21.04
 -10  -2  -6  154.74   13.75
 -10  -2  -6  165.92   21.18
 -10   2  -7  120.66   11.24
 -10  -2  -7   92.31    9.52
 -10  -2  -7  100.26   10.33
 -10  -2   7  107.88   17.28
 -10  -2  -7  100.33   11.42
 -10   2  -7  116.73   10.57
 -10  -2  -7   99.49   16.68
 -10  -2   7  119.58   11.03
 -10  -2  -7   99.97   10.56
 -10   2   7  121.70   18.22
 -10   2  -7  101.27   16.70
 -10   2  -8   12.06    4.82
 -10   2  -8   17.96   14.46
 -10  -2   8    8.27    7.78
 -10   2  -8   10.81    7.48
 -10   2  -8   18.55    5.35
 -10   2   8    4.93    8.17
 -10  -2  -8    9.77    5.48
 -10  -2  -8    6.55    7.93
 -10  -2  -8   16.49    4.80
 -10  -2  -8   11.39    4.44
 -10  -2   9   -1.74    8.40
 -10   2   9   -1.73    8.10
 -10   2  -9    3.49    3.85
 -10  -2  -9    5.11    7.76
 -10   2  -9    1.61    7.32
 -10  -2  -9    2.30    3.92
 -10  -2  -9    2.72    5.25
 -10   2  -9    5.36    4.80
 -10   2  -9   -6.14   13.07
 -10  -2 -10  152.74   12.80
 -10   2 -10  178.84   13.86
 -10   2 -10  152.26   13.83
 -10   2 -10  126.13   28.10
 -10  -2 -10  136.98   14.70
 -10  -2 -11  164.74   16.00
 -10   2 -11  176.43   13.96
 -10   2 -11  176.15   31.92
  10  -2 -11  165.46   21.43
 -10  -2 -11  151.66   12.84
 -10  -2 -12  323.25   21.38
 -10   2 -12  368.64   22.75
  10  -2 -12  310.43   31.24
  10   2 -12  345.27   35.78
 -10   2 -12  335.71   44.26
 -10  -2 -12  354.52   25.73
 -10   2 -13    1.94    5.36
 -10  -2 -13    5.48    3.48
 -10   2 -13    6.77    4.33
 -10  -2 -13    6.14    6.53
 -10  -2 -13    1.05    4.23
  10   2 -13   -3.96   10.06
 -10   2 -13   -9.60   17.84
 -10  -2 -14  107.61   13.16
 -10   2 -14  100.93    9.79
 -10   2 -14  105.74   12.00
  10   2 -14   82.60   17.85
 -10  -2 -14   94.07   10.45
  10  -2 -15  177.66   16.20
 -10  -2 -15  221.19   18.98
 -10  -2 -15  229.00   16.64
 -10   2 -15  242.09   18.49
 -10   2 -16   39.62    8.37
 -10  -2 -16   34.79    8.22
  10  -2 -16   37.67    6.87
 -10  -2 -16   31.97    6.28
 -10   2 -17    4.13    5.41
 -10  -2 -17    6.23    4.87
  10  -2 -17    2.58    3.73
 -10  -2 -18   93.09   10.76
 -10   2 -18  116.57   11.46
 -10   2 -19   36.04    6.92
 -10   2 -20   35.57    5.90
 -10   2 -21    0.27    2.68
 -11   2   0   26.57    8.41
 -11  -2   0    9.31    8.67
 -11  -2   0    8.22    4.47
 -11   2   0   18.46    6.01
 -11   2   0    8.20    4.08
 -11  -2   0   11.57    5.61
 -11   2  -1  599.68   37.77
 -11   2  -1  655.83   47.73
 -11   2   1  644.47   38.17
 -11  -2   1  616.07   35.78
 -11   2   1  635.01   35.67
 -11  -2  -1  633.05   36.07
 -11  -2  -1  634.32   48.16
 -11  -2   1  646.59   48.16
 -11   2   1  668.58   47.84
 -11  -2   1  639.24   39.29
 -11   2  -1  649.38   35.80
 -11   2  -2 1105.45   63.20
 -11  -2   2 1219.85   65.32
 -11   2  -2 1180.79   74.74
 -11  -2  -2 1137.31   74.69
 -11   2   2 1123.63   73.81
 -11  -2   2 1181.12   75.13
 -11  -2   2 1166.87   61.45
 -11   2   2 1126.24   60.99
 -11  -2  -2 1085.61   64.26
 -11  -2  -2 1190.56   61.67
 -11   2  -2 1200.15   61.47
 -11  -2  -3  120.22   12.76
 -11  -2  -3  141.48   11.95
 -11  -2  -3  161.10   21.41
 -11   2  -3  131.97   11.58
 -11   2  -3  118.49   19.01
 -11  -2   3  145.82   14.12
 -11   2  -3  131.17   11.40
 -11  -2  -3  126.41   13.46
 -11   2  -3  135.22   12.80
 -11  -2   3  153.23   20.76
 -11   2   3  129.65   18.84
 -11   2  -4   16.77    9.28
 -11  -2  -4   29.11   10.97
 -11  -2  -4   30.08    6.94
 -11   2  -4   28.68    6.35
 -11   2  -4   32.17    5.71
 -11  -2  -4   20.56    6.29
 -11   2   4   41.94   11.67
 -11  -2   4   25.27   10.25
 -11  -2   4   29.15    6.76
 -11  -2  -5   47.78   12.95
 -11  -2   5   46.42   12.98
 -11  -2   5   40.30    7.62
 -11   2  -5   47.91    7.76
 -11   2  -5   52.85   12.62
 -11  -2  -5   60.07    8.28
 -11  -2  -5   63.67    8.78
 -11   2  -5   47.95    6.89
 -11   2   5   49.10   12.33
 -11  -2  -6  305.91   21.90
 -11  -2  -6  299.97   20.69
 -11  -2  -6  290.46   20.65
 -11   2   6  283.12   29.60
 -11  -2   6  263.48   20.19
 -11   2  -6  291.28   20.04
 -11  -2   6  271.96   29.59
 -11  -2  -6  269.18   29.49
 -11   2  -6  272.08   29.05
 -11   2  -7  428.36   37.77
 -11   2   7  395.11   37.33
 -11  -2  -7  441.98   29.53
 -11  -2  -7  475.64   28.29
 -11   2  -7  439.28   27.83
 -11  -2  -7  472.56   40.02
 -11  -2   7  392.36   37.33
 -11  -2  -8   25.23    7.59
 -11   2  -8   50.46   12.92
 -11   2   8   29.71   10.99
 -11  -2  -8   35.59   11.19
 -11  -2  -8   27.56    6.33
 -11  -2   8   29.91   11.24
 -11   2  -8   34.75    6.87
 -11   2  -8   30.31    6.75
 -11   2   9  123.21   21.04
 -11  -2   9  109.62   19.61
 -11  -2  -9  137.17   21.22
 -11   2  -9  108.85   19.27
 -11   2  -9  128.33   12.72
 -11   2  -9  145.08   12.60
 -11  -2  -9  139.40   14.35
 -11  -2  -9  121.81   11.80
 -11  -2 -10  457.39   31.77
 -11  -2 -10  476.35   29.02
 -11  -2  10  443.69   41.84
 -11   2 -10  494.64   29.80
 -11   2 -10  479.52   30.47
 -11   2  10  437.57   41.29
 -11   2 -10  522.23   55.11
 -11   2 -11  164.94   13.40
 -11  -2  11   97.82   19.41
 -11  -2 -11  154.52   12.70
 -11   2  11  137.57   22.72
 -11  -2 -11  144.88   15.18
  11  -2 -11  134.32   19.65
 -11   2 -11  135.15   29.42
 -11   2  12  -15.85   13.52
 -11   2 -12    6.87    4.64
 -11  -2 -12    2.13    3.75
  11   2 -12    2.01    8.25
 -11  -2 -12    4.63    6.21
 -11   2 -12   -3.30   13.52
 -11  -2 -13  172.60   16.51
 -11  -2  13  138.17   22.46
  11   2 -13  156.24   23.43
 -11   2  13  169.53   24.88
 -11   2 -13  147.34   12.62
 -11   2 -13  160.81   30.60
 -11  -2 -13  141.03   11.71
 -11   2 -14  292.84   22.13
 -11   2 -14  305.90   19.70
 -11  -2 -14  285.29   22.92
 -11   2 -15  167.28   15.28
  11  -2 -15  160.40   13.98
 -11  -2 -15  139.70   15.09
  11  -2 -16   16.94    5.24
 -11  -2 -16   21.07    7.29
 -11   2 -16   28.17    7.44
 -11  -2 -17    6.34    5.69
  11  -2 -17    4.36    3.65
 -11   2 -17    9.42    5.85
 -11   2 -18   37.17    7.00
 -11   2 -19   18.20    5.25
 -11   2 -20    4.17    3.53
 -12   2   0 3975.76  197.13
 -12   2   0 3921.99  211.05
 -12  -2   0 3861.07  211.43
 -12  -2   0 3884.69  194.99
 -12   2   0 3849.18  194.78
 -12  -2   0 3963.77  198.13
 -12  -2   1  128.43   18.51
 -12   2  -1  100.59   11.19
 -12   2   1   97.48   10.98
 -12   2  -1  123.49   17.97
 -12  -2  -1  106.76   17.48
 -12  -2   1  101.36    9.99
 -12   2   1   87.63    9.50
 -12   2   1  101.99   16.73
 -12  -2   1  109.73   12.00
 -12  -2  -1   84.39   10.02
 -12   2  -1  100.45    9.84
 -12  -2  -2  229.83   27.55
 -12   2  -2  222.76   25.97
 -12   2  -2  203.07   17.29
 -12   2   2  236.58   17.88
 -12   2   2  230.66   26.39
 -12  -2   2  258.89   19.07
 -12  -2   2  236.64   16.79
 -12   2   2  240.50   16.56
 -12  -2  -2  237.58   18.68
 -12  -2   2  230.51   27.54
 -12  -2  -2  228.22   16.87
 -12   2  -2  200.10   16.23
 -12   2  -2  218.82   16.24
 -12   2   3  253.96   28.38
 -12   2   3  242.21   18.79
 -12  -2  -3  258.21   29.43
 -12  -2  -3  264.72   19.48
 -12  -2   3  266.04   18.43
 -12   2   3  261.52   18.03
 -12  -2   3  301.33   20.81
 -12  -2  -3  261.26   19.97
 -12  -2   3  295.84   30.58
 -12   2  -3  282.98   29.09
 -12   2  -3  239.99   18.21
 -12   2  -3  248.83   19.46
 -12   2  -4  486.53   30.77
 -12   2  -4  462.52   41.09
 -12  -2  -4  462.85   42.38
 -12  -2  -4  490.24   32.66
 -12  -2   4  518.93   32.20
 -12  -2  -4  547.97   32.56
 -12   2  -4  510.08   31.95
 -12   2  -4  604.97   55.12
 -12  -2   4  538.50   43.60
 -12   2   4  505.26   42.43
 -12   2   5   26.26   11.13
 -12  -2  -5   26.15    6.63
 -12   2  -5   16.19    5.52
 -12  -2  -5   16.42    9.78
 -12   2  -5   24.12   10.41
 -12   2  -5   15.36    5.82
 -12  -2   5   15.89    8.81
 -12   2  -5   20.20   14.34
 -12   2  -6  772.18   45.13
 -12  -2  -6  782.42   45.03
 -12   2  -6  734.77   44.37
 -12  -2  -6  849.96   59.88
 -12  -2   6  752.59   57.31
 -12   2  -6  822.67   58.33
 -12   2   6  819.17   58.42
 -12   2  -6  867.69   71.90
 -12   2   7   45.20   13.62
 -12   2  -7   56.92   15.13
 -12  -2  -7   58.02    8.63
 -12  -2  -7   67.74   16.40
 -12  -2  -7   61.19    9.95
 -12  -2   7   50.91   14.75
 -12   2  -7   61.67   21.80
 -12   2  -7   57.95    8.54
 -12  -2  -8 1535.76   98.73
 -12  -2  -8 1620.69   83.43
 -12   2  -8 1626.14   83.92
 -12  -2  -8 1564.88   85.58
 -12  -2   8 1350.20   95.81
 -12   2  -8 1548.62   83.75
 -12   2  -8 1454.46   96.91
 -12   2   8 1559.32   98.56
 -12   2  -9  180.96   24.19
 -12   2  -9  196.05   16.53
 -12   2  -9  204.49   16.26
 -12  -2  -9  162.21   23.99
 -12  -2  -9  204.63   15.82
 -12  -2   9  184.55   25.03
 -12  -2  -9  193.91   17.76
 -12   2   9  177.34   24.19
 -12   2  10   32.59   12.80
 -12  -2 -10   32.14    6.40
 -12   2 -10   31.21    6.64
 -12  -2  10    7.74    9.71
 -12  -2 -10   36.02    8.62
 -12   2 -10   36.08    7.83
 -12  -2  11    5.87    8.94
 -12   2 -11   11.55    5.36
 -12  -2 -11   24.14    5.73
 -12   2  11    9.70   10.14
 -12  -2 -11   17.78    7.66
 -12   2 -11   17.43    6.78
 -12   2 -11   19.78   14.55
 -12   2 -12  186.80   14.90
 -12  -2 -12  182.63   14.20
 -12   2  12  149.66   23.32
 -12  -2 -12  215.94   18.38
  12   2 -12  164.78   24.75
 -12   2 -12  227.87   35.48
 -12  -2  12  158.64   23.68
 -12   2 -13   75.38    8.76
 -12  -2 -13   61.53    7.48
 -12  -2 -13   81.60   11.70
 -12   2 -14  490.78   27.12
 -12  -2 -14  523.42   31.57
  12  -2 -15   36.75    7.05
 -12   2 -15   25.26    7.55
 -12  -2 -15   28.86    8.39
 -12  -2 -16  167.55   15.29
  12  -2 -16  140.28   12.38
  12  -2 -17    3.76    3.16
 -12   2 -17    7.49    5.49
 -12   2 -18    6.90    4.64
 -12   2 -19    4.55    3.82
 -12   2 -20   26.09    4.29
 -13  -2   0   50.87    7.56
 -13   2   0   48.52   12.91
 -13   2   0   42.78    7.91
 -13   2   0   38.59    6.93
 -13  -2   0   48.50   13.59
 -13  -2   0   40.81    8.35
 -13   2   1 2077.41  107.63
 -13  -2   1 1988.39  122.57
 -13   2  -1 2073.09  107.87
 -13  -2  -1 1968.52  107.59
 -13   2  -1 2058.08  123.34
 -13  -2  -1 2097.75  124.21
 -13  -2  -1 2146.28  106.74
 -13  -2   1 2061.09  106.41
 -13   2   1 2050.92  106.06
 -13   2   1 1886.17  120.97
 -13   2  -1 2179.37  131.06
 -13   2  -1 2094.00  106.43
 -13   2   2   39.73    6.83
 -13  -2   2   31.22    6.65
 -13  -2   2    3.79   10.21
 -13   2   2   22.22   10.20
 -13  -2  -2   23.55   11.68
 -13   2  -2   14.94    9.60
 -13   2   2   28.73    6.53
 -13   2  -2   34.88    7.33
 -13   2  -2   33.50    6.78
 -13  -2  -2   31.96    7.64
 -13   2  -2   43.43   15.17
 -13   2  -2   26.28    5.74
 -13  -2  -2   28.26    6.38
 -13   2   3  251.14   28.82
 -13  -2  -3  194.36   16.43
 -13  -2  -3  216.81   27.88
 -13   2  -3  205.61   26.20
 -13   2  -3  204.84   16.86
 -13   2  -3  198.88   16.04
 -13  -2   3  189.17   26.07
 -13   2   3  198.14   15.94
 -13  -2   3  190.49   15.56
 -13   2   3  214.73   16.02
 -13   2  -3  218.98   31.92
 -13   2   4   -1.40    5.19
 -13   2  -4    1.85    5.33
 -13  -2   4   -3.79   11.42
 -13  -2  -4   -3.92   10.21
 -13   2  -4   -3.71   10.54
 -13  -2   4   -0.47    4.82
 -13   2  -4    4.38    4.36
 -13   2  -4   -2.78   13.44
 -13   2   4   -5.63   11.69
 -13  -2  -5  577.31   51.17
 -13   2  -5  610.34   50.68
 -13   2   5  669.34   51.99
 -13   2  -5  629.27   38.61
 -13   2  -5  646.75   38.11
 -13  -2   5  605.70   50.97
 -13   2  -5  658.95   60.88
 -13  -2  -5  663.08   40.13
 -13   2  -6   59.83    8.78
 -13  -2  -6   71.83    9.86
 -13   2  -6   41.61   14.29
 -13  -2  -6   74.00   17.46
 -13   2   6   64.84   15.96
 -13   2  -6   69.86    9.46
 -13  -2   6   61.37   16.04
 -13   2  -6   80.74   23.29
 -13  -2  -7 1800.10  110.08
 -13  -2   7 1743.99  108.64
 -13   2  -7 1655.56  107.65
 -13   2   7 1879.96  110.17
 -13  -2  -7 1750.72   93.10
 -13   2  -7 1773.37   93.51
 -13   2  -7 1841.00  122.98
 -13   2  -8    1.89    8.86
 -13  -2   8   11.72   10.19
 -13  -2  -8   -4.00    9.91
 -13  -2  -8    2.79    5.43
 -13   2   8   -1.94    9.62
 -13  -2  -8    3.04    6.96
 -13   2  -8    3.10    4.99
 -13   2  -8   12.65   13.94
 -13   2  -9  594.35   34.96
 -13  -2  -9  583.53   34.22
 -13   2  -9  515.91   46.33
 -13  -2  -9  544.86   48.32
 -13   2  -9  573.41   35.31
 -13  -2   9  466.76   46.10
 -13   2   9  509.35   46.90
 -13   2  -9  557.61   58.65
 -13  -2  -9  577.07   36.96
 -13   2  10    3.88   12.10
 -13   2 -10   13.24    5.61
 -13  -2 -10   19.90    5.69
 -13   2 -10   17.38    6.50
 -13  -2 -10    6.16    6.53
 -13  -2  10   -1.96   13.38
 -13  -2  11   29.02   13.19
 -13   2 -11   63.27    9.83
 -13   2  11   42.17   14.78
 -13  -2 -11   71.79    8.66
 -13   2 -11   82.29    9.44
 -13  -2 -11   54.25    9.99
 -13  -2 -12    5.57    4.53
 -13  -2 -12    8.95    6.80
 -13   2 -12    2.56    5.60
 -13   2 -12    3.87    4.78
 -13  -2 -13  472.67   28.28
 -13  -2 -13  552.32   33.45
 -13   2 -13  475.55   29.15
 -13  -2 -14    2.67    6.12
 -13  -2 -14    4.97    3.07
 -13   2 -14    1.13    3.74
  13  -2 -15  330.44   22.85
 -13  -2 -15  415.56   26.08
  13  -2 -16   12.32    4.31
 -13   2 -16    7.48    5.29
 -13   2 -17   82.99    8.57
  13  -2 -17   47.39    5.34
 -13   2 -18    5.75    3.87
 -13   2 -19    5.39    3.11
 -14  -2   0 1780.84  112.67
 -14   2   0 1867.29  112.63
 -14   2   0 1713.57  113.37
 -14  -2   0 1854.61   95.89
 -14   2   0 1756.54   95.24
 -14  -2   0 1899.87   95.20
 -14   2   0 1758.84   94.38
 -14   2  -1   80.75    9.63
 -14  -2  -1   73.37   10.05
 -14  -2  -1   68.94   15.64
 -14   2  -1  112.80   21.53
 -14   2   1   88.01   10.20
 -14   2  -1   68.29   15.41
 -14   2  -1   86.35   10.45
 -14  -2   1   63.28    8.84
 -14  -2   1   67.75   16.08
 -14   2   1   73.23    9.13
 -14   2   1  104.08   18.15
 -14  -2  -1   75.01    9.82
 -14  -2   1   59.84    9.56
 -14   2   1   60.47   15.80
 -14   2  -2  405.90   39.13
 -14  -2   2  374.42   38.48
 -14   2  -2  399.86   43.38
 -14   2   2  389.91   26.24
 -14   2  -2  425.24   27.56
 -14  -2  -2  420.87   27.60
 -14  -2   2  455.83   27.68
 -14  -2   2  413.24   26.31
 -14  -2  -2  376.27   39.25
 -14   2   2  393.28   39.08
 -14   2  -2  377.91   25.86
 -14   2   2  412.53   26.59
 -14   2   3  263.26   30.78
 -14  -2   3  274.90   19.26
 -14  -2   3  238.63   29.85
 -14   2   3  240.26   17.70
 -14   2  -3  247.47   19.28
 -14   2  -3  239.61   18.28
 -14  -2  -3  186.54   27.75
 -14  -2  -3  237.39   19.13
 -14  -2   3  243.20   17.91
 -14   2   3  229.21   17.82
 -14   2  -3  217.32   28.69
 -14   2  -3  251.32   34.00
 -14   2   4   27.94    6.38
 -14  -2  -4   22.96    7.13
 -14   2  -4   25.43    7.21
 -14  -2   4   20.00   11.20
 -14   2   4   15.86   10.87
 -14   2  -4   29.58   12.34
 -14   2  -4   21.83   14.27
 -14  -2   4   20.27    6.08
 -14  -2   4   20.54    6.38
 -14   2  -4   21.60    6.23
 -14  -2  -4   22.82   12.09
 -14   2   5   26.07    6.62
 -14  -2   5   31.89   12.51
 -14   2  -5   41.39    8.48
 -14  -2   5   28.21    7.03
 -14   2   5   29.71   13.03
 -14   2  -5   36.93   16.86
 -14   2  -5   33.57   12.40
 -14  -2   5   34.75    6.94
 -14  -2  -5   16.65   11.45
 -14   2  -5   30.57    6.98
 -14  -2  -6  848.15   64.97
 -14   2   6  877.42   64.17
 -14   2  -6  786.12   62.29
 -14   2  -6  896.05   49.66
 -14  -2   6  870.63   48.28
 -14  -2   6  767.80   61.82
 -14  -2  -6  849.24   49.08
 -14   2   6  834.86   48.05
 -14   2  -6  826.78   49.03
 -14   2  -6  832.40   72.16
 -14  -2   6  911.25   48.26
 -14   2   7  229.27   29.49
 -14   2  -7  245.19   18.80
 -14  -2  -7  196.91   27.72
 -14  -2  -7  245.13   18.66
 -14  -2   7  198.88   27.87
 -14   2  -7  264.87   19.26
 -14   2  -7  190.39   27.24
 -14   2  -7  264.18   37.14
 -14   2   8  663.73   56.48
 -14   2  -8  699.00   57.03
 -14  -2  -8  782.24   44.11
 -14   2  -8  789.78   44.94
 -14   2  -8  773.57   69.68
 -14  -2   8  706.49   57.44
 -14  -2  -8  780.37   59.94
 -14  -2   9   25.49   12.73
 -14  -2  -9   43.69    8.12
 -14   2  -9   40.69    7.87
 -14   2   9   29.14   13.18
 -14   2  -9   37.98    8.13
 -14   2  -9   24.54   19.19
 -14  -2  -9   24.14    7.76
 -14   2 -10   14.48    6.57
 -14  -2 -10   22.00    5.78
 -14  -2 -10   26.07    8.32
 -14   2 -10   24.62    6.75
 -14   2 -11  123.17   11.75
 -14  -2 -11  120.07   11.29
 -14  -2 -11  113.90   13.69
 -14   2 -11  130.17   12.93
 -14   2 -12  142.78   13.29
 -14   2 -12  112.16   10.88
 -14  -2 -12  107.74   10.39
 -14  -2 -12  131.90   13.96
 -14   2 -13    2.81    4.13
 -14  -2 -13    0.68    3.39
 -14   2 -13    0.57    5.46
 -14  -2 -14  165.06   11.34
  14  -2 -15   68.22    7.90
  14  -2 -16  117.20    9.30
 -14   2 -17    4.60    3.91
 -14   2 -18    8.71    3.08
 -15  -2   0   -2.14   13.33
 -15   2   0   18.20    5.39
 -15  -2   0    5.32    5.68
 -15  -2   0    7.49    5.56
 -15   2   0    1.56    6.15
 -15   2  -1  443.13   28.31
 -15   2   1  427.04   41.90
 -15  -2  -1  411.74   41.33
 -15   2   1  430.17   27.57
 -15   2  -1  367.11   39.90
 -15  -2  -1  443.27   28.56
 -15  -2   1  337.77   39.39
 -15  -2   1  419.42   28.01
 -15   2  -1  388.79   41.68
 -15  -2   1  474.11   28.55
 -15   2   1  453.16   28.07
 -15  -2   2  140.67   24.51
 -15   2   2  202.29   15.30
 -15   2  -2  205.13   16.39
 -15  -2   2  169.33   15.36
 -15  -2  -2  165.46   25.99
 -15   2  -2  147.22   24.62
 -15  -2  -2  207.76   16.80
 -15   2   2  128.34   22.91
 -15  -2   2  193.46   15.78
 -15   2   2  197.93   15.54
 -15   2  -2  198.58   28.24
 -15  -2   3    2.07    9.70
 -15   2   3    7.13    5.54
 -15   2   3   -4.09    9.88
 -15   2  -3   13.29    6.38
 -15  -2  -3    6.00    5.84
 -15  -2   3    6.18    5.25
 -15  -2  -3    2.12   12.51
 -15  -2   3    7.70    4.98
 -15   2   3   11.76    4.86
 -15   2  -3    4.99   10.25
 -15   2  -3   -6.09   12.44
 -15   2  -4    8.09   10.04
 -15  -2   4    9.96    5.18
 -15   2   4   -2.02    9.21
 -15  -2   4    7.08    4.96
 -15   2   4    5.04    5.26
 -15   2  -4    7.27    5.85
 -15  -2  -4    5.97    5.81
 -15   2  -4    9.50    5.09
 -15  -2  -4    6.34    9.00
 -15  -2   4    4.07    8.35
 -15   2  -4    5.21   11.49
 -15  -2   5   14.11   10.31
 -15   2  -5   24.26   14.42
 -15  -2   5   22.92    6.22
 -15   2   5   25.75    6.75
 -15   2  -5   10.05   12.57
 -15   2   5   18.04   10.25
 -15  -2  -5   18.96   12.95
 -15  -2   5   20.21    6.08
 -15   2  -5   33.10    7.85
 -15   2  -5   17.94    6.26
 -15   2  -6  128.85   12.84
 -15   2  -6  122.83   12.40
 -15  -2   6  110.36   10.75
 -15   2   6  105.13   19.79
 -15  -2   6  103.75   19.77
 -15  -2  -6   76.64   18.17
 -15   2  -6   90.52   18.73
 -15  -2   6  127.89   11.77
 -15   2   6  115.89   11.54
 -15   2  -6   88.56   21.82
 -15  -2  -7  619.77   35.15
 -15   2   7  558.64   47.75
 -15  -2   7  515.38   47.30
 -15   2  -7  546.45   34.66
 -15   2  -7  493.59   46.73
 -15  -2   7  583.02   33.96
 -15   2  -7  571.49   34.99
 -15  -2  -7  479.29   46.76
 -15   2   7  579.66   33.74
 -15   2  -7  512.10   53.54
 -15  -2  -8   21.48    6.33
 -15   2   8    8.48    5.10
 -15   2  -8   17.52    6.37
 -15  -2   8   12.83    5.56
 -15  -2   9    3.70    5.02
 -15   2   9    5.94    5.23
 -15  -2  -9    5.58    4.93
 -15   2  -9    5.40    5.38
 -15  -2 -10   76.40    9.06
 -15   2 -10   71.72    8.95
 -15   2  10   63.15    7.90
 -15   2 -10   51.88    8.87
 -15  -2  10   62.93    8.05
 -15   2  11   -0.83    4.26
 -15  -2  11   -0.42    4.05
 -15  -2 -11    0.42    4.25
 -15   2 -11    5.69    4.81
 -15   2 -11    3.20    4.38
 -15   2  12   -0.78    3.80
 -15   2 -12    0.54    5.28
 -15  -2 -12    2.16    3.71
 -15  -2  12    1.95    3.87
 -15   2 -12   -1.63    4.43
 -15   2  13    6.05    3.75
 -15  -2  13    6.76    3.68
 -15  -2 -13    8.10    3.42
 -15   2 -13    8.01    3.75
 -15   2 -13    4.01    5.07
 -15  -2  14   71.72    7.34
 -15   2  14   78.43    7.38
 -15  -2 -14   50.99    5.40
  15  -2 -14   65.38    8.15
 -15   2 -14   82.55    9.18
 -15   2  15  143.92   10.11
 -15  -2  15  129.74    9.91
  15  -2 -15  119.37   10.02
  15  -2 -16    6.49    2.35
 -16  -2   0  186.98   15.27
 -16   2   0  153.39   23.78
 -16   2   0  170.48   14.42
 -16  -2   0  135.52   23.48
 -16   2  -1  -10.15   11.32
 -16   2   1   -4.10    6.42
 -16  -2   1   -4.18   11.64
 -16   2   1   -1.51    4.51
 -16   2  -1   10.97    4.91
 -16   2   1   -6.18   10.99
 -16  -2  -1    3.98    5.60
 -16  -2   1    1.65    5.17
 -16  -2   1   -0.52    5.71
 -16  -2   2   -2.07   10.28
 -16   2   2   -6.15   10.44
 -16   2   2    7.03    4.10
 -16  -2   2    6.95    5.06
 -16   2   2    2.05    5.54
 -16  -2  -2   -4.15   13.55
 -16   2  -2   12.34    5.23
 -16   2  -2   -2.01   11.68
 -16  -2  -2    5.71    5.48
 -16  -2   2    4.67    5.73
 -16   2   3   29.86    6.98
 -16   2  -3    8.00   11.71
 -16  -2   3   32.69   14.03
 -16   2  -3   49.36    8.16
 -16  -2  -3   29.69    7.76
 -16  -2   3   40.96    7.16
 -16  -2  -3    4.14   12.77
 -16  -2   3   37.77    7.37
 -16   2   3   29.28    5.86
 -16   2   3   22.30   12.73
 -16   2  -4  139.78   13.39
 -16   2   4  136.86   12.61
 -16  -2  -4  157.43   13.78
 -16  -2   4  138.49   22.58
 -16  -2  -4  133.73   22.74
 -16  -2   4  136.41   12.40
 -16  -2   4  135.82   12.65
 -16  -2   5    6.79    5.19
 -16   2   5   13.97    5.71
 -16   2  -5   10.70    5.84
 -16  -2   5   22.59    5.56
 -16  -2   6  170.62   13.47
 -16   2  -6  197.80   15.66
 -16   2  -6  171.15   14.87
 -16  -2   6  188.42   15.02
 -16   2   6  180.89   14.48
 -16  -2   7   26.45    6.00
 -16   2  -7   18.22    6.33
 -16   2   7   23.05    5.67
 -16  -2  -7   20.28    6.61
 -16   2  -7   15.79    5.96
 -16  -2   8   28.55    6.04
 -16  -2  -8   39.95    7.18
 -16   2  -8   22.21    6.30
 -16   2   8   29.98    6.18
 -16  -2   9    5.01    3.93
 -16   2   9    7.44    4.29
 -16   2  -9    8.50    5.14
 -16  -2  -9    7.80    5.05
 -16   2 -10    1.32    4.52
 -16   2  10    0.78    3.62
 -16  -2  10    0.39    3.82
 -16  -2 -10   -0.83    4.15
 -16   2 -10    0.51    4.74
 -16  -2  11   20.76    4.78
 -16  -2 -11   23.21    5.12
 -16   2  11   22.03    4.83
 -16   2 -11   23.79    5.82
 -16   2 -11   23.02    5.45
 -16  -2  12   26.11    5.33
 -16  -2 -12   31.59    4.97
 -16   2 -12   30.36    5.56
 -16   2 -12   36.39    6.47
 -16   2  12   28.30    5.44
 -16  -2  13   15.19    4.48
  16  -2 -13   24.96    5.61
 -16  -2 -13   21.17    3.60
 -16   2 -13   26.32    5.61
 -16   2  13   24.27    4.82
 -16   2  14   79.46    6.91
 -16   2 -14   66.40    7.54
 -16  -2  14   75.30    6.73
  16  -2 -14   66.47    7.19
  16  -2 -15   23.95    3.59
 -17   2   0   -0.47    4.42
 -17  -2   0    5.09    5.30
 -17  -2  -1  207.00   15.92
 -17   2  -1  179.52   15.00
 -17   2   1  195.47   14.87
 -17  -2   1  200.66   15.51
 -17  -2  -2  217.16   17.21
 -17   2   2  193.20   15.38
 -17  -2   2  245.17   17.02
 -17   2  -2  220.83   16.86
 -17  -2   2  242.75   17.14
 -17   2   2  241.42   17.13
 -17  -2   3   29.17    6.46
 -17  -2  -3   24.33    6.93
 -17   2   3   28.78    5.15
 -17  -2   3   27.98    6.18
 -17   2  -3   32.57    6.79
 -17   2   3   26.13    6.41
 -17  -2  -4    8.69    5.46
 -17   2  -4    6.61    5.15
 -17  -2   4    3.34    4.04
 -17  -2   4    2.80    4.67
 -17   2   4    3.22    4.68
 -17  -2   5   17.99    5.55
 -17  -2   5   30.64    5.42
 -17  -2  -5   12.47    5.97
 -17   2   5   21.07    5.43
 -17   2  -5   30.13    6.63
 -17   2  -6   97.73   10.48
 -17  -2   6   97.39    9.89
 -17   2   6   99.42    9.81
 -17   2  -7  178.73   14.34
 -17  -2  -7  176.15   14.21
 -17   2   7  171.25   13.32
 -17  -2   7  174.48   13.60
 -17  -2   8   13.24    4.73
 -17  -2  -8   21.87    5.76
 -17   2  -8   29.56    6.39
 -17   2   8   16.53    4.68
 -17  -2  -9   55.48    7.43
 -17  -2   9   56.82    6.83
 -17   2   9   71.29    7.23
 -17  -2 -10   85.86    8.57
 -17   2 -10   97.60    8.99
 -17  -2  10   83.53    8.37
 -17   2  10   86.59    8.51
 -17   2  11    4.50    3.86
 -17  -2  11    6.35    3.68
 -17   2 -11   11.99    4.03
 -17  -2 -11   13.09    3.84
 -17   2  12   -3.97    3.60
 -17  -2 -12   -0.45    2.50
  17  -2 -13   53.56    6.03
 -17  -2 -13   48.98    4.27
  17  -2 -14   30.00    3.95
 -18   2   0  908.67   50.69
 -18  -2   0  985.91   51.68
 -18   2  -1   67.37    7.96
 -18  -2   1   63.36    8.06
 -18  -2  -1   69.42    8.49
 -18   2   1   60.43    7.25
 -18   2   2  154.96   12.50
 -18  -2   2  187.52   13.83
 -18  -2  -2  207.27   14.87
 -18   2  -2  202.57   14.46
 -18  -2   3   40.38    6.07
 -18   2  -3   34.89    6.57
 -18  -2  -3   37.17    7.05
 -18   2   4  115.69   10.02
 -18   2  -4  128.15   10.96
 -18  -2   4   93.31    9.05
 -18  -2  -4  115.78   10.76
 -18  -2   4  113.75   10.18
 -18  -2   5   59.15    7.18
 -18   2   5   49.33    6.98
 -18  -2   5   52.73    6.00
 -18   2  -5   67.22    8.07
 -18  -2  -5   56.22    7.58
 -18   2  -6  330.96   22.12
 -18  -2   6  359.68   21.93
 -18   2   6  364.64   21.92
 -18  -2   7   40.50    6.30
 -18   2  -7   42.72    6.58
 -18   2   7   46.79    6.32
 -18   2   8  610.61   32.69
 -18  -2  -8  585.55   32.88
 -18   2  -8  571.33   32.92
 -18  -2   8  563.85   32.44
 -18  -2  -9   37.96    5.60
 -18   2   9   41.70    5.74
 -18  -2   9   36.09    5.60
 -18  -2 -10   71.65    6.91
 -18   2 -10   88.62    7.57
 -18  -2  10   66.39    6.76
 -18   2  10   77.90    7.05
 -18  -2 -11    7.42    2.83
  18  -2 -12   86.12    7.23
 -18  -2 -12   73.59    5.48
  18  -2 -13   13.92    2.65
 -19   2   0    3.88    3.36
 -19  -2   0    5.85    3.92
 -19   2   1  776.85   42.60
 -19  -2  -1  848.80   44.17
 -19  -2   1  843.84   43.78
 -19   2  -1  789.66   43.34
 -19   2  -2    8.63    4.10
 -19  -2   2    4.60    3.36
 -19  -2  -2    9.64    4.33
 -19  -2   3  191.49   13.30
 -19  -2  -3  219.93   14.60
 -19   2  -3  208.24   14.24
 -19  -2   4    2.80    2.64
 -19  -2  -4    3.12    4.06
 -19   2  -4    1.34    3.54
 -19   2  -5  369.67   22.52
 -19  -2  -5  389.79   22.81
 -19   2  -6    5.64    3.70
 -19   2  -7  759.67   40.70
 -19   2  -8    1.34    3.13
 -19  -2  -8    0.51    2.91
 -19  -2  -9  378.44   21.18
 -19  -2 -10   -0.17    2.09
  19  -2 -11   60.23    5.48
 -20   2   0  324.56   19.14
 -20  -2   0  380.93   20.24
 -20   2  -1   37.49    4.66
 -20  -2   1   40.33    4.80
 -20  -2   2  134.67    9.27
 -20   2  -2  135.15    9.59
 -20  -2  -2  145.60   10.05
 -20  -2   3   54.43    4.93
 -20   2  -3   68.31    6.08
 -20  -2  -3   63.20    6.20
 -20   2  -4   38.26    4.77
 -20  -2  -4   41.11    4.97
 -20  -2  -5   25.73    4.17
 -20   2  -5   21.84    3.78
 -20  -2  -6  188.80   12.10
 -20   2  -6  197.76   12.21
  20  -2  -8  187.53   13.14
 -20  -2  -8  247.65   12.92
  20  -2  -9   14.29    2.57
 -21  -2   0   27.91    3.05
 -21  -2  -1   11.80    2.34
 -21  -2  -2   55.50    4.69
 -21  -2  -3   10.80    2.32
 -21  -2  -4   26.53    3.05
 -21  -2  -5    5.76    1.77
   0   3   0    1.02    1.52
   0   3  -1 2265.79  115.48
   0   3   1 2454.03  118.75
   0   3   2   79.18    7.57
   0   3  -2   83.60    6.35
   0   3  -2   94.18    7.73
   0   3  -3  398.39   24.59
   0   3  -3  426.52   25.29
   0   3  -4   10.97    3.89
   0   3  -5    1.08    3.70
   0   3  -6   35.59    6.73
   0   3  -7 1803.58   94.81
   0   3  -7 1726.00   90.09
   0   3  -8    8.92    3.11
   0   3  -8    5.97    5.24
   0   3  -9   27.72    4.49
   0   3  -9   19.60    7.42
   0   3  -9   32.05    8.69
   0   3 -10   48.09   10.60
   0   3 -10   48.36    9.99
   0   3 -11  104.51   15.83
   0   3 -12    1.44    7.14
   0  -3 -13   74.67    7.58
   0   3 -13   82.39   15.98
   0   3 -13   67.71    7.77
   0   3 -14   14.29    9.78
   0   3 -14   17.70    4.98
   0   3 -15  389.51   25.08
   0  -3 -15  410.96   25.34
   0   3 -15  392.73   25.38
   0   3 -15  375.08   37.72
   0   3 -16   43.69    7.27
   0   3 -16   27.26    6.65
   0  -3 -16   32.01    6.84
   0   3 -17   40.67    7.82
   0  -3 -17   32.13    7.42
   0   3 -17   36.02    7.23
   0   3 -18    6.53    4.92
   0   3 -18    5.72    5.16
   0  -3 -18    2.12    5.56
   0   3 -19    7.47    5.40
   0   3 -19   -1.49    4.30
   0  -3 -19    2.55    5.41
   0  -3 -20    6.07    4.83
   0   3 -20   11.31    5.14
   0   3 -20    7.65    4.42
   0   3 -21   85.15    8.68
   0  -3 -21   79.33    8.83
   0  -3 -22    4.02    4.42
   0   3 -22    1.60    4.35
   0  -3 -22   15.10    4.38
   0  -3 -23   14.78    3.58
   1   3   0 1875.94   98.11
   1   3  -1 1793.96   96.03
  -1   3   1 1821.78   89.42
  -1   3  -1 1820.99   91.66
   1   3   1 1823.25   94.67
  -1  -3   1 1845.22   89.71
  -1   3  -1 1818.21   93.62
  -1   3  -2  104.01    8.60
   1   3   2  107.13   10.05
  -1   3  -2   99.76    8.90
  -1   3  -3   27.41    4.59
   1   3   3   31.20    5.60
   1   3  -3   34.46    5.47
  -1   3  -3   27.93    5.10
   1   3  -4  607.18   35.12
   1   3   4  607.85   35.28
  -1   3  -4  573.05   34.63
  -1   3  -4  594.14   33.42
   1   3  -5 2151.43  113.61
  -1   3  -5 2266.10  113.69
  -1   3  -5 2171.49  110.70
   1  -3  -6  541.40   31.73
   1   3  -6  657.86   37.50
  -1   3  -6  619.22   36.89
  -1   3  -6  612.06   32.97
   1   3  -7   72.27   10.02
   1  -3  -7   61.22    6.70
  -1   3  -7   44.81    5.54
  -1   3  -7   50.98    8.95
  -1   3  -8  495.42   28.09
   1   3  -8  531.84   35.38
  -1   3  -8  550.21   35.37
   1  -3  -8  482.68   30.22
   1   3  -8  539.61   34.52
   1   3  -9 1423.29   75.83
  -1   3  -9 1292.78   74.92
   1   3  -9 1253.63   71.23
   1  -3  -9 1226.00   69.14
   1   3 -10   58.95   11.29
  -1   3 -10   57.56   11.17
   1  -3 -10   60.47    9.03
  -1   3 -10   49.54   11.33
   1   3 -11   88.87   14.71
  -1   3 -11   87.05   14.56
  -1   3 -11   94.59   15.45
  -1   3 -12   64.49    7.13
   1   3 -12   58.08   13.27
  -1   3 -12   69.13   13.86
  -1   3 -13  549.21   32.85
   1   3 -13  653.00   46.91
   1  -3 -13  552.64   32.35
  -1   3 -13  572.13   32.75
  -1  -3 -13  575.99   32.74
  -1   3 -13  599.89   45.77
  -1   3 -14  248.48   17.21
   1  -3 -14  263.38   17.00
  -1   3 -14  209.66   26.59
  -1   3 -14  219.89   17.06
   1   3 -14  263.49   29.03
  -1  -3 -14  228.43   16.87
   1   3 -14  263.52   17.35
  -1   3 -15   43.42    6.87
  -1   3 -15   36.69    7.06
  -1  -3 -15   49.94    7.01
   1   3 -15   46.67    7.30
  -1   3 -15   42.52   13.72
  -1   3 -16    4.50    4.73
  -1   3 -16    7.38    5.09
   1   3 -16    9.43    5.03
  -1  -3 -16    5.51    5.39
  -1   3 -17  393.28   27.00
   1   3 -17  447.65   27.21
   1   3 -17  409.60   26.99
   1  -3 -17  446.66   27.63
  -1   3 -17  407.57   26.87
  -1  -3 -17  416.92   27.08
  -1   3 -18   95.07   10.73
  -1   3 -18  101.40   10.50
   1   3 -18   75.27    9.46
   1   3 -18   78.02    9.77
   1  -3 -18   97.33   10.53
  -1  -3 -18   92.86   10.32
   1   3 -18   63.21   17.70
   1   3 -19    5.51    5.51
   1   3 -19   14.55    5.03
  -1   3 -19    4.89    5.27
  -1   3 -19   15.54    5.42
   1  -3 -19    8.28    5.54
  -1  -3 -19    6.97    5.48
   1  -3 -20    4.27    4.70
   1   3 -20    0.91    4.63
  -1   3 -20    2.25    4.31
   1   3 -20    3.53    3.60
  -1  -3 -20   -0.92    4.69
  -1   3 -20   -1.78    4.42
   1   3 -21  104.50    9.61
   1  -3 -21  101.04    9.76
  -1   3 -21   91.04    9.18
  -1  -3 -21   93.04    9.44
  -1   3 -21   75.92    8.43
   1   3 -22   61.18    7.16
   1  -3 -22   59.62    7.27
  -1  -3 -22   69.77    7.21
  -1   3 -22   51.87    6.89
  -1  -3 -22   64.35    7.53
   1  -3 -23   16.14    3.37
  -1  -3 -23   18.08    3.74
  -2   3   0 7204.96  347.03
  -2  -3   0 7027.86  341.81
  -2   3   0 6985.32  341.38
   2   3   0 6847.27  346.61
   2   3  -1  128.75   11.99
  -2   3  -1  116.62   11.72
  -2   3   1  126.61    8.38
  -2  -3  -1  113.60    8.44
  -2  -3   1  126.24    8.62
  -2   3  -1  128.41    8.49
  -2  -3  -2   93.28    7.54
  -2   3  -2   96.75    7.57
  -2   3  -2   98.15    8.60
   2   3   2  102.25    9.92
  -2   3  -3 4875.61  243.81
   2   3   3 4969.71  244.98
  -2   3  -4 4684.71  204.16
   2   3   4 4565.52  203.93
   2  -3  -5  217.85   13.49
  -2   3  -5  271.31   18.92
   2   3   5  257.12   17.82
   2   3  -6  161.55   14.78
  -2   3  -6  174.63   14.95
   2  -3  -6  125.28    9.82
   2   3  -7  547.07   35.17
   2  -3  -7  496.70   29.32
  -2   3  -7  519.60   34.26
  -2   3  -8 3061.40  157.52
   2   3  -8 3293.92  158.68
  -2   3  -8 3011.68  148.28
  -2  -3  -8 2951.74  148.16
   2  -3  -8 2948.31  151.45
   2   3  -9  106.07   14.32
  -2   3  -9  128.56    8.80
  -2  -3  -9  126.12    8.76
  -2   3  -9  115.95   14.75
  -2   3 -10  112.88   15.44
   2   3 -10  120.76   16.24
  -2   3 -10  106.97    8.78
  -2  -3 -10  108.90    8.67
   2  -3 -10  113.70   12.47
  -2   3 -10  133.66   19.81
  -2   3 -11  716.13   40.43
   2  -3 -11  675.95   45.14
   2   3 -11  746.95   51.68
  -2   3 -11  719.17   50.71
  -2   3 -11  773.98   40.41
  -2  -3 -11  770.76   40.39
  -2   3 -11  774.66   54.88
  -2   3 -12 1113.67   61.23
  -2   3 -12 1151.42   73.82
   2  -3 -12 1044.98   66.85
  -2   3 -12 1219.22   61.18
  -2  -3 -12 1147.97   60.90
   2   3 -12 1296.02   75.96
  -2   3 -12 1246.82   76.88
  -2   3 -13   12.32    4.68
  -2  -3 -13   15.83    4.66
   2  -3 -13   11.48    3.93
   2   3 -13   11.57    9.04
  -2   3 -13   13.71    4.58
  -2   3 -13   14.56    8.66
   2   3 -14   52.69    6.81
   2  -3 -14   44.78    6.35
  -2   3 -14   31.85   11.23
  -2   3 -14   46.59    6.73
   2   3 -14   34.75   12.49
  -2   3 -14   37.49    6.95
  -2  -3 -14   43.83    6.54
   2  -3 -15   13.98    4.42
  -2   3 -15   12.76    5.62
   2   3 -15   22.02    5.35
  -2   3 -15   10.34    4.56
  -2  -3 -15   14.55    4.86
  -2   3 -16  470.49   31.94
  -2   3 -16  516.61   31.69
  -2  -3 -16  496.05   31.49
   2   3 -17  101.55   10.74
  -2   3 -17  109.36   11.95
  -2   3 -17  111.18   11.41
  -2  -3 -17   98.55   11.13
  -2  -3 -18   49.66    8.32
   2  -3 -18   77.12    9.58
  -2   3 -18   45.25    8.14
  -2   3 -18   75.13    9.19
   2   3 -18   78.00    8.95
   2   3 -18   73.42    9.25
   2   3 -18   56.87   16.43
   2   3 -19  125.87   11.51
   2   3 -19  116.48   11.92
   2  -3 -19  121.66   12.23
  -2   3 -19  153.23   12.90
  -2   3 -19  142.17   12.71
  -2  -3 -19  161.26   13.24
  -2   3 -20   78.49    9.32
   2   3 -20   82.53    9.36
   2  -3 -20   94.64   10.05
  -2   3 -20   81.48    8.99
  -2  -3 -20   80.86    9.23
   2   3 -21   22.48    6.11
   2  -3 -21   20.34    6.01
  -2   3 -21   23.96    5.22
  -2  -3 -21   17.78    5.88
  -2   3 -21   18.40    5.68
  -2  -3 -21   21.64    5.51
  -2  -3 -22   30.03    5.59
   2  -3 -22   43.48    5.97
   2   3 -22   41.37    5.81
  -2   3 -22   27.96    5.31
  -2  -3 -22   31.52    5.32
   2  -3 -23    1.34    2.45
  -2  -3 -23    1.62    2.51
   3   3   0 1405.65   74.89
  -3   3   0 1387.04   71.18
  -3  -3   0 1396.75   71.72
  -3   3   0 1376.02   74.72
  -3   3  -1  230.54   14.72
  -3  -3   1  242.03   15.21
  -3   3   1  224.34   14.55
   3   3  -1  243.05   17.96
  -3   3  -1  204.88   17.11
  -3  -3  -1  208.18   14.87
  -3  -3  -2 2183.57  109.98
  -3   3  -2 2153.00  109.54
  -3   3  -3  854.73   46.21
  -3  -3  -3  835.60   46.37
  -3  -3  -4 3091.35  151.12
  -3   3  -4 2970.36  150.72
   3   3   4 2887.06  151.41
  -3   3  -5  825.46   46.01
   3  -3  -5  769.95   40.71
   3   3   5  732.43   43.99
  -3   3  -6  161.97   14.99
   3  -3  -6  140.54   10.92
   3   3   6  153.42   13.29
  -3   3  -7  665.80   42.24
   3   3  -7  703.94   43.44
   3  -3  -7  640.35   36.94
  -3  -3  -8    8.08    2.85
   3   3  -8   18.92    7.69
   3  -3  -8    3.92    3.46
  -3   3  -8   11.31    6.44
  -3   3  -8    4.39    2.80
  -3   3  -9  190.90   20.00
  -3  -3  -9  193.75   13.19
   3  -3  -9  240.31   17.56
   3   3  -9  264.83   23.17
  -3   3  -9  210.59   13.54
   3  -3 -10 1445.90   85.07
  -3   3 -10 1615.30   92.00
  -3   3 -10 1610.97   80.66
  -3  -3 -10 1590.40   80.55
   3   3 -10 1644.91   92.85
  -3   3 -10 1636.38   99.46
   3  -3 -11  329.07   25.84
  -3  -3 -11  334.91   20.54
   3   3 -11  405.74   32.45
  -3   3 -11  315.56   20.74
  -3   3 -11  358.18   30.48
  -3   3 -11  344.52   20.71
  -3   3 -11  317.27   33.64
   3  -3 -12  428.39   25.10
   3   3 -12  411.90   35.72
  -3   3 -12  392.66   24.60
   3  -3 -12  354.14   29.52
  -3   3 -12  414.47   24.33
  -3  -3 -12  388.55   24.06
  -3   3 -12  392.10   38.39
   3  -3 -13  114.68   10.41
   3   3 -13  140.66   20.51
  -3   3 -13   79.77    9.35
  -3   3 -13  111.28   10.05
  -3  -3 -13  119.87   10.28
  -3   3 -13  111.11   19.32
  -3  -3 -14    3.48    4.03
  -3   3 -14    2.62    4.13
   3   3 -14    5.57    8.18
  -3   3 -14    2.12    4.26
   3  -3 -14    6.35    4.03
  -3   3 -15  120.33   12.64
   3   3 -15  164.96   12.58
  -3   3 -15  148.52   12.69
  -3  -3 -15  145.52   12.46
   3  -3 -15  150.08   12.53
  -3   3 -16   48.92    7.75
   3   3 -16   35.03    6.66
  -3   3 -16   42.33    8.26
  -3  -3 -16   49.38    7.89
  -3  -3 -17   88.85   10.58
  -3   3 -17   96.02   11.48
   3   3 -17  122.52   23.37
  -3   3 -17   90.75   10.60
  -3  -3 -18  306.96   20.53
  -3   3 -18  288.18   20.98
   3   3 -18  247.93   32.43
  -3   3 -18  293.67   20.38
   3   3 -18  278.96   19.49
  -3  -3 -19   10.46    5.78
  -3   3 -19   19.31    6.04
  -3   3 -19   18.11    6.07
   3   3 -19   20.27    6.29
   3  -3 -19   12.97    6.59
  -3   3 -20   30.60    6.31
   3   3 -20   30.73    6.53
  -3  -3 -20   32.43    6.20
  -3   3 -20   34.51    6.66
   3  -3 -20   15.93    6.27
  -3  -3 -20   36.36    6.45
   3  -3 -21   21.96    5.66
   3   3 -21   15.50    5.19
  -3   3 -21   12.27    4.74
  -3  -3 -21   21.35    5.48
  -3   3 -21   25.29    5.44
  -3  -3 -21   20.61    5.24
   3  -3 -22   18.13    4.72
  -3  -3 -22   18.47    4.60
  -3   3 -22   19.20    4.06
  -3  -3 -22   21.21    4.64
  -3   3 -22   18.47    4.50
   3   3 -22   16.67    4.56
  -3  -3 -23    8.09    2.75
   3  -3 -23   10.40    2.79
  -4   3   0  781.92   44.23
  -4   3   0  747.96   41.82
  -4  -3   0  750.23   42.37
   4   3   0  756.01   44.07
   4   3  -1   20.73    5.51
   4   3   1   20.44    5.42
  -4   3   1   12.03    3.72
  -4   3   1   15.81    4.96
  -4  -3  -1   17.90    4.59
  -4   3  -1   20.65    4.42
  -4  -3   1   14.19    3.98
  -4   3  -1   21.69    5.34
  -4  -3  -2 1068.98   58.94
  -4  -3   2 1148.14   59.46
  -4   3   2 1121.02   58.64
  -4   3  -2 1007.13   57.89
  -4  -3  -3 1792.27   92.93
  -4   3  -3 1749.67   92.19
  -4   3  -4  370.88   24.87
  -4  -3  -4  386.42   25.58
  -4   3  -5 1279.75   69.52
  -4  -3  -5 1337.38   70.26
   4   3   5 1193.53   68.40
   4   3   6 1016.10   56.62
   4   3   7  115.66   11.83
  -4  -3  -7  132.48    8.88
  -4   3  -7  135.11    8.96
   4  -3  -7  113.80   11.03
   4   3  -8  344.51   29.93
  -4   3  -8  411.35   22.37
   4  -3  -8  340.64   24.96
  -4  -3  -8  414.12   22.33
   4  -3  -9  212.54   17.55
   4   3  -9  234.90   22.85
  -4   3  -9  214.62   13.95
  -4  -3  -9  215.98   13.93
   4  -3 -10  179.95   16.63
  -4   3 -10  168.17   12.20
  -4  -3 -10  170.82   12.09
  -4   3 -10  199.84   27.13
   4   3 -10  208.03   22.16
  -4   3 -11  889.52   45.61
   4  -3 -11  740.16   50.30
   4   3 -11  873.70   58.23
  -4  -3 -11  855.51   45.33
  -4   3 -11  811.64   45.98
  -4   3 -11  936.74   65.60
   4  -3 -11  841.23   46.64
   4   3 -12   51.12   13.96
   4  -3 -12   65.50    8.37
  -4   3 -12   93.46    9.09
  -4   3 -12   90.52    8.27
   4  -3 -12   41.13   10.60
  -4  -3 -12   80.52    8.00
  -4   3 -12   69.59   17.35
  -4  -3 -13    4.87    3.73
  -4   3 -13    6.94    4.08
   4   3 -13   -5.24   10.13
  -4   3 -13    4.03    3.98
   4  -3 -13    1.93    3.89
  -4   3 -13   15.03   10.65
  -4   3 -14   60.38    8.74
   4  -3 -14   69.89    8.49
  -4   3 -14   67.36    8.34
  -4  -3 -14   69.74    8.34
  -4   3 -14   94.42   20.10
  -4   3 -15    6.54    4.99
  -4  -3 -15    9.33    4.84
  -4   3 -15    5.26    5.18
   4   3 -15   18.24    5.00
   4  -3 -15   17.40    5.16
   4  -3 -16   53.30    7.19
  -4  -3 -16   40.33    7.42
  -4   3 -16   40.36    7.67
  -4   3 -16   63.62    9.03
   4   3 -16   50.47    7.09
  -4   3 -17  142.21   12.90
  -4   3 -17  140.65   13.68
   4   3 -17  137.46   12.06
   4   3 -17  141.49   23.96
  -4  -3 -17  145.60   13.07
  -4   3 -18    8.28    5.53
  -4  -3 -18   11.75    5.56
  -4   3 -18   22.03    6.57
  -4  -3 -18   16.17    5.91
  -4   3 -19  158.54   13.71
   4   3 -19  136.23   12.67
  -4  -3 -19  151.59   12.68
   4  -3 -19  153.92   13.32
  -4  -3 -19  137.18   12.52
  -4   3 -19  138.07   12.50
   4   3 -20   -0.43    4.94
   4  -3 -20    2.28    4.59
  -4   3 -20    4.16    4.37
  -4  -3 -20    5.92    4.59
  -4   3 -20    3.42    4.46
  -4  -3 -20   11.15    4.79
   4   3 -21   13.80    4.80
  -4   3 -21   13.13    4.71
  -4   3 -21   16.79    5.11
  -4  -3 -21   14.13    4.96
  -4  -3 -21   13.35    4.79
   4  -3 -21   17.27    5.55
   4  -3 -22   -2.36    4.43
   4   3 -22   -2.25    4.55
  -4  -3 -22    8.90    3.74
  -4   3 -22   11.67    3.39
  -4  -3 -22   11.68    3.77
  -4   3 -22    4.18    3.38
  -4  -3 -23    0.99    2.17
  -5  -3   0  344.95   23.39
  -5   3   0  329.41   22.48
   5   3   0  338.20   23.20
  -5   3   0  338.86   23.26
   5   3   1   37.77    6.53
  -5  -3  -1   26.61    5.89
  -5   3  -1   33.77    6.13
  -5   3   1   37.18    6.39
  -5  -3   1   28.32    5.95
  -5   3   1   36.56    5.99
  -5   3   2    1.71    3.12
  -5  -3   2    4.98    3.82
  -5  -3  -2    3.79    3.87
  -5   3  -2    3.41    3.30
  -5   3  -3   13.16    4.46
  -5  -3  -3   13.97    5.06
  -5   3  -4 1003.51   58.88
  -5  -3  -4 1101.38   60.34
  -5  -3  -5   28.84    6.96
  -5   3  -5   30.69    6.75
  -5  -3  -6  240.47   20.58
  -5   3  -6  229.51   20.07
  -5   3  -6  245.11   14.66
  -5  -3  -6  253.36   14.74
   5   3   6  231.84   18.36
  -5   3  -7   71.99    6.36
  -5  -3  -7   75.78    6.34
   5   3   7   64.12    8.75
  -5   3  -8  424.51   24.13
  -5  -3  -8  430.92   24.08
   5  -3  -8  417.39   28.26
   5   3  -9  149.05   18.43
   5  -3  -9  108.87   13.11
  -5   3  -9  155.25   10.74
  -5  -3  -9  146.25   10.52
   5  -3 -10  243.70   21.02
   5   3 -10  274.27   26.54
  -5   3 -10  244.26   16.24
  -5  -3 -10  266.97   16.45
  -5   3 -10  239.72   16.81
  -5   3 -10  273.11   33.21
  -5  -3 -11  134.71   14.88
   5   3 -11  165.85   21.69
  -5   3 -11  167.98   12.85
  -5   3 -11  154.93   12.02
  -5  -3 -11  166.43   12.08
   5  -3 -11  148.49   16.43
  -5   3 -11  165.42   25.81
   5  -3 -12   41.35    6.88
  -5  -3 -12   29.23    5.59
  -5   3 -12   35.27    6.35
   5   3 -12   43.35   13.36
  -5   3 -12   25.58    5.49
  -5   3 -12   39.61   14.83
  -5  -3 -12   20.20    6.70
  -5   3 -13   68.31   16.84
  -5   3 -13   69.34    8.31
   5   3 -13   45.11   13.86
  -5   3 -13   67.14    8.01
  -5  -3 -13   75.63    8.20
   5  -3 -13   66.71    8.56
  -5   3 -14  217.16   17.24
  -5   3 -14  207.34   16.22
  -5  -3 -14  219.68   16.28
   5  -3 -14  242.64   17.48
  -5   3 -14  262.14   33.24
   5  -3 -15  114.17   11.01
  -5   3 -15   96.55   10.98
  -5  -3 -15   99.22   10.34
  -5   3 -15   88.89   10.04
  -5  -3 -16   -3.92    5.82
  -5   3 -16    8.54    5.81
  -5   3 -16   -2.94    5.69
   5  -3 -16    6.30    4.01
   5  -3 -17   41.89    6.27
  -5   3 -17   49.58    8.46
   5   3 -17   19.32   12.64
  -5  -3 -17   48.29    7.76
  -5   3 -17   40.93    7.46
  -5  -3 -17   52.56    7.65
  -5   3 -18  122.98   12.38
  -5  -3 -18  132.23   11.84
  -5   3 -18  118.20   11.38
  -5  -3 -18   91.95   10.56
  -5   3 -19   22.77    5.81
  -5   3 -19   34.47    7.33
  -5  -3 -19   30.50    6.45
  -5   3 -20   -3.57    4.99
  -5  -3 -20   -0.80    4.56
  -5   3 -20    8.79    4.97
  -5  -3 -20   -1.72    3.91
   5   3 -20   -2.06    5.31
   5  -3 -20   -5.68    5.62
   5   3 -21    6.15    4.41
   5  -3 -21   12.62    5.09
  -5   3 -21    8.95    4.36
  -5  -3 -21   11.81    4.52
  -5  -3 -21   22.77    4.88
  -5   3 -21   13.90    4.71
  -5   3 -22   38.14    5.20
  -5  -3 -22   44.08    5.31
  -6  -3   0  891.78   52.59
  -6   3   0  910.70   52.07
   6   3   1 1136.14   66.50
  -6  -3  -1 1250.29   68.89
  -6   3   1 1231.98   67.02
  -6   3  -1 1246.31   68.06
  -6   3   1 1268.47   68.34
  -6  -3   1 1260.98   69.05
  -6   3  -2  471.83   30.60
  -6  -3  -2  470.57   31.19
  -6  -3   2  477.93   31.31
   6   3   2  395.15   28.53
  -6   3   2  441.75   29.23
  -6   3   2  497.26   30.92
  -6   3   3    6.76    4.46
  -6  -3   3    8.05    5.03
  -6  -3  -3    6.35    4.79
  -6   3  -3    7.89    4.77
  -6   3  -4   45.76    8.66
  -6  -3  -4   47.14    8.96
  -6  -3  -5    5.45    5.07
  -6   3  -5    5.77    5.23
  -6   3  -6  900.82   51.40
  -6  -3  -6  875.75   51.98
  -6   3  -6  774.73   42.59
  -6  -3  -6  818.04   42.76
   6   3   6  832.48   48.18
  -6   3  -7 1550.91   87.03
  -6  -3  -7 1596.70   88.48
  -6   3  -7 1499.77   78.03
  -6  -3  -7 1557.94   78.07
   6   3   7 1542.00   82.99
   6   3   8   42.03    7.16
  -6   3  -8   46.09    5.46
  -6  -3  -8   45.32    5.39
  -6   3  -9   47.18    5.71
  -6  -3  -9   51.66    5.86
  -6  -3 -10  409.46   29.07
  -6   3 -10  367.61   24.75
   6  -3 -10  434.10   30.98
   6   3 -10  476.97   37.99
  -6   3 -10  451.90   25.25
  -6  -3 -10  424.51   24.86
  -6   3 -10  495.65   46.82
  -6   3 -11   76.12    8.11
  -6   3 -11   63.61    7.91
   6   3 -11  101.16   16.99
  -6  -3 -11   68.84   10.63
   6  -3 -11   67.41   11.31
  -6   3 -11   90.39    8.48
  -6  -3 -11   72.26    7.86
  -6   3 -11   75.83   19.84
  -6   3 -12  109.10   10.84
  -6  -3 -12   74.13   11.47
   6   3 -12   89.05   17.20
  -6   3 -12  114.74    9.90
  -6  -3 -12  101.24    9.66
  -6   3 -12   94.51   21.70
  -6  -3 -13  146.86   15.65
   6  -3 -13  162.65   14.23
  -6   3 -13  153.20   13.64
  -6   3 -13  166.62   13.31
  -6  -3 -13  161.78   13.05
  -6   3 -13  151.55   26.12
   6  -3 -14  166.63   14.02
  -6   3 -14  131.12   12.90
  -6   3 -14  149.09   12.71
  -6  -3 -14  144.05   12.70
  -6   3 -14  155.97   27.69
  -6  -3 -14  118.30   14.31
   6  -3 -15  421.21   26.98
  -6   3 -15  423.51   27.67
  -6  -3 -15  342.91   27.97
  -6   3 -15  455.98   26.86
  -6  -3 -15  427.89   26.49
  -6   3 -16   20.62    6.09
  -6  -3 -16    8.34    5.52
   6   3 -16   14.73   13.14
  -6   3 -16   26.56    6.86
  -6  -3 -16    6.80    4.82
   6  -3 -16   25.22    5.87
   6  -3 -17   15.84    5.01
  -6   3 -17   11.16    5.55
  -6  -3 -17    7.76    5.41
  -6   3 -17   14.17    6.01
   6   3 -17    4.20   11.48
  -6  -3 -17   10.89    5.31
  -6   3 -18  113.66   12.01
  -6  -3 -18  106.81   10.91
  -6   3 -18  107.64   10.88
  -6  -3 -18  104.40   10.70
  -6  -3 -19   11.92    4.84
  -6   3 -19    6.37    4.37
  -6   3 -19   12.58    5.62
  -6  -3 -19    5.08    4.47
  -6   3 -20    2.39    4.58
  -6   3 -20   -2.60    4.64
  -6  -3 -20   -5.61    5.07
  -6  -3 -20   -1.62    3.78
   6   3 -20   -5.81    4.99
   6  -3 -20   -6.56    5.54
  -6   3 -21   53.54    6.95
   6   3 -21   50.40    6.77
   6  -3 -21   57.46    7.00
  -6  -3 -21   59.69    6.70
  -6   3 -22   37.11    5.05
  -6  -3 -22   33.61    4.57
  -7  -3   0 2800.76  139.86
  -7   3   0 2784.05  138.71
  -7   3   0 2608.00  130.39
  -7  -3   0 2600.21  130.65
  -7   3  -1 2082.36  112.02
  -7  -3   1 2280.86  114.07
  -7   3  -1 2072.22  104.27
  -7   3   1 2249.79  112.83
  -7  -3  -1 2107.31  104.60
   7   3   1 1922.88  108.51
  -7   3   1 2072.74  108.79
  -7  -3  -1 2230.13  113.67
   7   3   2   81.48    9.53
  -7   3  -2   83.82   11.41
  -7  -3   2   92.87   12.28
  -7  -3  -2   73.51   11.60
  -7   3   2   81.70    9.64
  -7   3   2   87.48   11.65
  -7  -3  -2   82.74    7.03
  -7   3  -2   83.37    6.80
  -7  -3  -3  800.75   49.61
  -7  -3   3  842.20   50.18
   7   3   3  732.69   45.59
  -7   3  -3  832.80   49.05
  -7   3   3  756.45   45.67
  -7   3   3  796.92   48.88
  -7   3  -4  147.10   15.44
  -7   3   4  146.45   16.11
  -7  -3   4  133.12   16.01
  -7  -3  -4  154.55   16.49
  -7  -3  -5 2729.57  145.42
  -7   3  -5 2721.25  144.39
  -7  -3  -6  696.43   46.18
  -7   3  -6  664.47   44.66
  -7  -3  -7  351.65   29.75
  -7   3  -7  332.81   27.88
  -7   3  -7  378.00   20.98
  -7  -3  -7  345.89   20.71
   7   3   7  297.16   24.10
  -7  -3  -8  434.32   25.53
  -7   3  -8  433.82   26.30
  -7  -3  -8  431.62   25.93
  -7   3  -8  475.95   26.04
  -7  -3  -9 1269.11   68.79
  -7   3  -9 1185.00   64.79
  -7   3  -9 1118.65   64.54
   7  -3  -9 1257.09   71.68
  -7  -3  -9 1202.48   64.35
  -7   3  -9 1332.87   64.65
  -7  -3  -9 1267.78   64.20
  -7   3 -10   75.33    7.98
  -7  -3 -10   51.64    9.30
   7  -3 -10   38.79    9.06
  -7  -3 -10   80.61    7.94
  -7   3 -10   77.73    7.85
  -7  -3 -10   66.02    7.25
  -7   3 -10   57.92   18.58
  -7   3 -11  190.16   14.86
  -7  -3 -11  201.85   18.80
   7  -3 -11  182.80   19.94
  -7  -3 -11  209.64   15.16
   7   3 -11  233.85   26.86
  -7   3 -11  217.64   15.21
  -7  -3 -11  212.36   15.10
  -7   3 -11  262.07   35.25
  -7  -3 -12    6.84    4.35
  -7   3 -12   -0.42    3.57
   7   3 -12    3.66    8.07
  -7   3 -12    3.03    3.97
  -7  -3 -12    7.14    6.19
  -7   3 -12    2.64    3.99
  -7  -3 -12    1.85    4.15
  -7   3 -12   11.08   11.79
  -7   3 -13  880.27   49.37
  -7  -3 -13  771.87   51.24
   7  -3 -13  888.15   50.08
  -7   3 -13  896.21   48.40
  -7   3 -13  882.98   72.13
  -7  -3 -13  885.89   48.31
   7  -3 -14  506.13   29.20
  -7   3 -14  419.43   27.91
  -7  -3 -14  380.16   29.53
  -7   3 -14  442.96   47.34
  -7   3 -14  437.85   27.08
  -7  -3 -14  406.97   26.67
   7  -3 -15   98.25   11.18
  -7   3 -15   97.93   11.48
  -7  -3 -15   75.70   11.84
  -7   3 -15  100.73   10.67
  -7  -3 -15  106.91   10.79
  -7   3 -15  120.60   23.58
  -7  -3 -16   38.83    7.54
   7  -3 -16   56.85    7.88
  -7   3 -16   36.92    7.51
  -7  -3 -16   36.24    8.38
   7   3 -16   41.56   15.66
  -7   3 -16   46.66    8.39
  -7  -3 -16   58.52    8.50
  -7  -3 -17  480.49   29.35
   7  -3 -17  458.80   28.27
  -7   3 -17  504.34   30.79
  -7   3 -17  468.44   28.88
  -7  -3 -17  452.99   28.81
  -7   3 -18   28.29    6.14
  -7  -3 -18   25.96    6.02
  -7  -3 -18   25.63    6.14
  -7   3 -18   32.06    7.51
  -7   3 -19   10.60    5.82
  -7  -3 -19   17.48    5.17
  -7  -3 -20    3.02    3.80
   7  -3 -20    7.17    4.78
   7   3 -20    0.71    4.22
  -7   3 -20    4.56    4.59
  -7   3 -21  152.61   11.54
   7   3 -21  116.90   10.41
   7  -3 -21  128.56   10.74
  -7  -3 -21  172.59   11.15
  -7   3 -22   54.81    5.72
  -8  -3   0 5568.62  283.57
  -8  -3   0 5483.44  272.90
  -8   3   0 5596.10  272.66
  -8   3   0 5780.80  282.67
  -8  -3  -1  310.46   25.58
  -8  -3   1  294.08   25.35
  -8   3   1  290.13   24.46
  -8   3  -1  287.79   24.09
  -8  -3   1  312.77   18.02
  -8   3   1  302.40   17.58
  -8  -3  -1  286.74   17.73
  -8   3  -1  293.58   17.52
  -8   3  -2  271.68   23.01
  -8  -3   2  270.18   23.56
  -8  -3  -2  270.39   23.80
  -8   3   2  230.45   17.88
  -8  -3  -2  267.01   16.30
  -8   3  -2  260.67   15.95
  -8   3   2  274.44   23.28
  -8   3  -3  815.32   49.52
  -8   3   3  826.34   49.89
  -8   3   3  692.56   43.09
  -8  -3  -3  781.02   49.96
  -8  -3   3  752.53   49.67
  -8  -3   4 5076.22  258.44
  -8   3   4 4677.75  251.25
  -8  -3  -4 5305.87  259.39
  -8   3  -4 5226.51  257.81
  -8   3   4 5202.33  258.06
  -8  -3  -5   56.44   11.60
  -8  -3   5   51.14   10.22
  -8   3   5   37.94    9.18
  -8   3  -5   56.03   11.08
  -8   3   6  402.85   33.03
  -8   3  -6  415.24   32.30
  -8  -3  -6  427.66   33.55
  -8  -3   6  394.77   33.22
  -8  -3  -7  430.38   32.74
  -8   3  -7  343.81   22.74
  -8   3  -7  338.47   29.23
  -8  -3  -7  372.34   25.42
  -8   3  -7  334.66   21.92
  -8  -3  -7  371.47   22.09
   8   3   7  364.24   26.45
  -8   3  -8 2067.99  107.50
  -8   3  -8 2188.03  118.66
  -8  -3  -8 2156.58  111.05
  -8   3  -8 1977.34  106.83
  -8  -3  -8 2200.55  119.86
  -8  -3  -8 2114.37  106.84
  -8  -3  -8 2142.33  107.35
  -8  -3  -9   10.43    3.99
  -8   3  -9   13.05    4.83
  -8  -3  -9   13.25    6.40
  -8  -3  -9    9.99    4.06
  -8   3  -9   12.70    4.56
  -8   3 -10  351.69   22.50
  -8  -3 -10  308.07   21.17
  -8  -3 -10  372.59   26.36
   8  -3 -10  319.99   28.31
  -8   3 -10  346.19   22.63
  -8  -3 -10  350.40   22.15
  -8   3 -10  436.60   47.01
  -8   3 -10  370.17   22.27
  -8  -3 -10  350.02   21.89
  -8   3 -11  322.53   21.05
  -8  -3 -11  294.62   23.96
  -8  -3 -11  294.86   20.73
  -8   3 -11  356.63   42.72
   8   3 -11  326.93   33.37
  -8   3 -11  326.48   20.89
  -8  -3 -11  334.91   20.87
   8   3 -12 1195.67   81.48
  -8  -3 -12 1216.75   69.70
  -8  -3 -12 1186.37   65.69
  -8   3 -12 1226.19   65.44
  -8   3 -12 1346.09   95.65
  -8   3 -12 1270.51   65.83
  -8  -3 -12 1236.25   65.50
  -8   3 -13   25.81    6.39
  -8  -3 -13   29.32    6.21
  -8  -3 -13   26.11    8.61
  -8   3 -13   29.95    7.10
  -8   3 -13   26.57   15.81
   8  -3 -14  364.09   25.11
  -8   3 -14  365.76   24.95
  -8  -3 -14  338.95   26.59
  -8   3 -14  354.28   43.02
  -8   3 -14  353.40   23.65
  -8  -3 -14  377.46   23.89
   8  -3 -15  160.16   13.79
  -8  -3 -15  113.38   13.94
  -8   3 -15  119.45   12.79
   8   3 -15  108.41   20.83
  -8   3 -15  155.81   27.11
  -8   3 -15  127.58   12.04
  -8  -3 -15  126.45   12.02
   8  -3 -16  639.82   37.30
  -8  -3 -16  577.15   38.88
  -8   3 -16  670.02   38.98
  -8   3 -16  641.91   36.98
   8  -3 -17   50.88    7.22
  -8  -3 -17   38.38    7.93
  -8   3 -17   60.44    9.10
  -8  -3 -17   52.00    7.83
  -8   3 -18   88.11   10.49
  -8  -3 -18   84.81    9.36
  -8   3 -19   70.22    9.15
  -8  -3 -19   74.80    8.18
  -8   3 -20  226.06   15.73
   8  -3 -20  184.68   14.42
  -8  -3 -20  236.12   14.90
  -8   3 -21   27.57    5.10
  -8   3 -22   33.13    4.05
  -9  -3   0  162.59   12.21
  -9   3   0  182.44   12.22
  -9  -3   0  196.45   20.23
  -9   3   0  209.62   20.10
  -9   3  -1 1764.65   98.15
  -9  -3   1 1701.05   98.72
  -9   3   1 1759.23   98.32
  -9   3   1 1754.03   87.51
  -9  -3   1 1681.70   87.64
  -9  -3  -1 1707.00   87.74
  -9   3  -1 1738.27   87.49
  -9  -3  -1 1793.96   99.53
  -9  -3  -2  563.09   40.00
  -9   3  -2  492.42   37.77
  -9  -3   2  505.42   38.70
  -9  -3  -2  527.01   29.57
  -9   3  -2  522.96   29.13
  -9   3   2  504.74   37.88
  -9  -3   3 1549.85   88.89
  -9   3   3 1504.17   87.69
  -9  -3  -3 1497.19   88.48
  -9   3  -3 1460.33   86.94
  -9  -3  -4  885.49   55.08
  -9  -3   4  748.39   52.90
  -9   3   4  792.84   52.96
  -9   3  -4  785.23   52.40
  -9   3   5 1377.91   78.43
  -9  -3  -5 1410.16   79.58
  -9   3  -5 1272.09   68.67
  -9  -3   5 1375.48   78.99
  -9  -3  -5 1215.39   69.54
  -9   3  -5 1339.44   77.34
  -9  -3  -5 1206.45   66.29
  -9  -3  -6   33.36   10.67
  -9   3   6   39.28   10.86
  -9  -3   6   36.03   10.28
  -9   3  -6   43.60    6.11
  -9  -3  -6   35.96    7.72
  -9   3  -6   38.37   11.16
  -9  -3  -6   44.13    5.88
  -9   3  -7  880.33   57.51
  -9   3   7 1011.67   60.44
  -9   3  -7  829.60   46.32
  -9  -3   7  883.67   58.34
  -9  -3  -7  861.51   46.36
  -9  -3  -7  910.56   58.99
  -9  -3   7  812.98   48.84
  -9  -3  -7  808.82   49.47
  -9  -3  -7  794.03   49.38
  -9   3   8   32.22   10.80
  -9  -3   8   14.01    8.36
  -9   3  -8   15.04    5.09
  -9  -3  -8   29.48    6.12
  -9   3  -8   19.56    8.76
  -9  -3  -8   15.32    6.50
  -9   3  -8   16.40    4.76
  -9  -3  -8   22.37    6.21
  -9  -3  -8   21.26    9.02
  -9  -3  -8   18.55    4.77
  -9  -3  -9  693.25   39.06
  -9   3  -9  694.99   39.75
  -9   3  -9  691.04   39.64
  -9  -3  -9  646.58   38.80
  -9  -3  -9  721.75   43.04
  -9   3  -9  819.32   69.83
  -9   3 -10  555.20   31.83
  -9  -3 -10  487.30   30.31
  -9   3 -10  520.67   31.73
  -9  -3 -10  513.36   34.68
  -9  -3 -10  532.65   31.22
  -9   3 -10  572.70   56.79
  -9   3 -11  643.87   36.22
  -9  -3 -11  600.25   39.49
   9   3 -11  646.42   51.12
  -9   3 -11  638.51   37.02
  -9  -3 -11  608.36   35.98
  -9   3 -11  648.35   61.17
  -9  -3 -11  579.23   34.58
  -9  -3 -12  272.35   22.77
  -9   3 -12  274.55   19.16
  -9  -3 -12  279.93   19.47
  -9   3 -12  235.18   36.86
  -9   3 -13  404.82   25.73
  -9  -3 -13  424.33   30.00
  -9   3 -13  463.83   50.45
  -9  -3 -14   60.16   10.83
   9  -3 -14   58.72    9.33
  -9   3 -14   43.97    8.72
  -9   3 -14   50.70   18.45
   9  -3 -15  326.83   22.68
   9   3 -15  305.35   34.29
  -9  -3 -15  312.68   24.35
  -9   3 -15  326.20   23.24
   9  -3 -16    8.73    5.27
  -9   3 -16   26.84    7.35
  -9  -3 -16   15.19    6.52
  -9   3 -17  131.88   12.97
   9  -3 -17  114.39   10.68
  -9  -3 -17   93.72   11.76
  -9  -3 -17  138.48   11.93
  -9   3 -18  223.45   16.18
  -9  -3 -18  221.69   15.15
  -9   3 -19  111.55   10.90
  -9   3 -20   14.06    4.73
   9  -3 -20   -0.29    4.44
  -9   3 -21   56.30    6.16
 -10  -3   0   50.81    9.97
 -10  -3   0   53.24   12.84
 -10   3   0   54.34   11.62
 -10  -3   0   51.10    6.68
 -10   3   0   62.33    6.44
 -10   3  -1    9.32    3.33
 -10  -3   1   -0.35    3.63
 -10  -3   1   10.38    6.46
 -10   3   1    2.61    6.81
 -10   3  -1    1.31    7.44
 -10   3  -1    4.55    4.63
 -10  -3  -1    5.78    3.70
 -10   3   1   10.80    3.56
 -10  -3  -1   -1.42    8.71
 -10  -3   1    4.22    8.00
 -10  -3  -2  816.46   54.20
 -10   3  -2  719.14   44.72
 -10   3  -2  738.16   51.96
 -10   3   2  790.00   41.45
 -10  -3   2  791.89   53.70
 -10  -3   2  763.08   41.66
 -10  -3   2  685.78   46.71
 -10  -3  -2  660.00   46.37
 -10   3   2  761.07   52.16
 -10  -3  -2  789.11   41.95
 -10   3  -2  804.58   41.59
 -10   3  -3  491.50   31.75
 -10   3  -3  503.37   38.45
 -10  -3  -3  602.77   41.90
 -10  -3   3  504.45   34.45
 -10  -3  -3  418.41   32.88
 -10  -3   3  569.45   41.04
 -10   3   3  481.78   38.38
 -10   3  -4    1.20    4.37
 -10  -3  -4    2.39    6.08
 -10   3  -4    8.04    5.06
 -10  -3  -4   21.81    8.11
 -10  -3  -4    0.64    4.52
 -10   3   4    5.59    6.93
 -10  -3   4    7.94    6.65
 -10  -3   4    2.91    6.62
 -10  -3   5  276.04   26.91
 -10   3  -5  261.10   25.74
 -10   3  -5  240.63   18.85
 -10  -3  -5  274.95   20.33
 -10   3   5  269.36   26.69
 -10   3  -5  228.02   16.89
 -10  -3   5  258.11   21.19
 -10  -3  -5  255.16   21.37
 -10  -3  -5  275.20   27.14
 -10  -3  -6  617.23   44.88
 -10   3   6  566.68   42.53
 -10   3  -6  559.77   33.26
 -10  -3  -6  507.65   33.98
 -10   3  -6  505.71   31.11
 -10   3  -6  541.40   41.66
 -10  -3   6  564.50   34.82
 -10  -3  -6  491.24   34.06
 -10  -3   6  516.59   41.85
 -10  -3   7   20.15    6.18
 -10   3   7   18.71    8.77
 -10  -3  -7   26.71    6.92
 -10  -3   7   15.85    8.54
 -10  -3  -7   27.97    6.35
 -10   3  -7   29.37   10.63
 -10  -3  -7   24.85    7.39
 -10  -3  -7   31.81   11.36
 -10   3  -7   21.37    5.28
 -10  -3  -7   28.28    5.39
 -10  -3   8    6.64    8.51
 -10  -3  -8   15.68    5.86
 -10   3   8   14.73    9.55
 -10  -3  -8   29.13    6.19
 -10  -3  -8   18.14    9.25
 -10   3  -8   22.86   10.01
 -10  -3  -8   17.41    6.91
 -10   3  -8   17.26    5.21
 -10  -3  -8   26.14    5.44
 -10   3  -8   28.34    6.22
 -10  -3   8   24.31    5.71
 -10   3  -8   26.05   14.38
 -10   3   9   29.30   10.80
 -10  -3   9   61.09   13.65
 -10   3  -9   47.05    7.54
 -10  -3  -9   51.62    7.54
 -10  -3  -9   49.95    9.33
 -10   3  -9   40.40    7.04
 -10  -3  -9   45.03    7.03
 -10  -3  -9   50.44    7.49
 -10   3  -9   52.34   19.47
 -10  -3 -10  189.29   14.97
 -10  -3  10  158.61   24.22
 -10   3 -10  199.72   15.92
 -10  -3 -10  213.45   18.87
 -10   3 -10  216.94   16.64
 -10  -3 -10  192.45   15.34
 -10   3  10  173.01   24.67
 -10   3  11  600.60   51.39
 -10   3 -11  663.95   38.34
 -10  -3 -11  631.75   36.93
 -10  -3 -11  680.26   42.03
  10   3 -11  664.33   53.89
 -10   3 -11  728.95   67.41
 -10   3 -11  709.64   39.63
 -10  -3  11  609.87   51.72
 -10  -3 -11  626.41   37.91
 -10   3 -12   69.43    8.60
 -10   3  12   52.25   14.30
 -10  -3  12   31.11   11.95
 -10  -3 -12   44.22    6.43
 -10  -3 -12   50.14   10.10
 -10  -3 -12   54.59    7.91
 -10   3 -12   32.49   17.51
 -10   3 -13    4.68    4.58
 -10   3  13    1.97   10.73
 -10  -3  13   -3.93   12.83
 -10  -3 -13    0.81    6.74
 -10   3 -13   -9.50   15.28
  10  -3 -14   39.08    7.99
 -10   3  14   31.41   12.54
 -10  -3 -14   30.65    8.26
  10   3 -14   40.04   13.58
 -10  -3  14   27.24   12.03
 -10   3 -14   33.20   17.92
  10  -3 -15   47.68    8.21
 -10  -3 -15   54.38    9.78
 -10   3 -15   61.73    9.30
  10  -3 -16   43.93    7.35
 -10  -3 -16   33.61    8.12
 -10   3 -16   38.11    7.84
  10  -3 -17   98.40    9.74
 -10   3 -17  121.55   11.96
  10  -3 -18   11.76    3.51
 -10   3 -18   11.91    5.65
 -10   3 -19   63.96    8.04
 -10   3 -20   38.86    5.67
 -10   3 -21   12.80    3.22
 -11   3   0  180.50   16.98
 -11   3   0  222.45   24.27
 -11  -3   0  180.66   23.22
 -11  -3   0  227.50   15.20
 -11   3   0  213.85   14.59
 -11  -3   0  187.81   18.79
 -11  -3   1   38.32    9.12
 -11  -3  -1   30.75   10.57
 -11  -3   1   37.52    5.63
 -11   3   1   20.78    8.96
 -11  -3   1   38.13   11.43
 -11   3  -1   31.39   10.50
 -11   3   1   29.57    7.04
 -11   3  -1   35.12    7.70
 -11   3  -1   38.58    5.50
 -11   3   1   38.82    5.49
 -11  -3  -1   51.65    6.46
 -11  -3   2    4.79    3.50
 -11   3   2    5.65    3.67
 -11  -3   2   11.44    7.08
 -11   3   2   10.52    7.65
 -11   3  -2    8.68    5.43
 -11  -3  -2    8.14    7.86
 -11   3  -2    1.50    7.24
 -11   3   2    6.84    4.80
 -11  -3  -2    6.18    3.90
 -11   3  -2    1.52    3.33
 -11  -3   2    4.78    7.48
 -11  -3  -2    0.82    6.50
 -11  -3   3   56.23   13.22
 -11  -3   3   65.03   11.18
 -11   3  -3   46.43    8.38
 -11  -3  -3   64.00   10.96
 -11  -3  -3   45.41   12.28
 -11   3  -3   55.19   12.78
 -11  -3   3   58.72    7.14
 -11   3   3   62.57    7.16
 -11   3  -3   56.67    7.06
 -11   3   3   61.29   12.39
 -11   3   4  173.61   21.88
 -11  -3   4  116.78   19.44
 -11   3  -4  154.40   14.58
 -11  -3  -4  158.37   21.24
 -11  -3   4  163.73   16.26
 -11   3  -4  157.68   12.71
 -11  -3  -4  170.27   16.42
 -11   3  -4  156.61   20.54
 -11   3   5   56.06   12.91
 -11  -3   5   56.98    9.61
 -11  -3   5   57.59   13.38
 -11   3  -5   59.73    8.93
 -11   3  -5   52.08    7.29
 -11   3  -5   61.63   13.73
 -11  -3  -5   42.81    8.55
 -11  -3  -5   64.44   10.26
 -11  -3  -5   61.73   14.08
 -11  -3  -6   59.84    9.76
 -11   3  -6   62.57    8.84
 -11  -3  -6   56.57    8.53
 -11  -3  -6   56.33   14.45
 -11   3  -6   52.08   13.41
 -11   3  -6   64.28    8.04
 -11  -3  -6   56.70    9.65
 -11  -3   6   74.26   10.19
 -11  -3   6   60.26   13.92
 -11   3   6   72.19   15.45
 -11  -3   7   49.85    8.03
 -11  -3  -7   46.89    8.45
 -11  -3   7   44.56   12.70
 -11   3   7   62.42   14.04
 -11  -3  -7   49.97    8.03
 -11  -3  -7   53.77   13.87
 -11   3  -7   36.91   11.05
 -11  -3  -7   41.67    8.68
 -11   3  -7   52.91    7.49
 -11  -3   8  361.83   35.12
 -11   3  -8  312.37   31.98
 -11   3   8  308.15   33.13
 -11  -3  -8  323.04   33.61
 -11  -3  -8  345.65   25.64
 -11   3  -8  338.05   23.03
 -11  -3  -8  368.35   23.55
 -11  -3   8  351.22   23.11
 -11  -3  -8  345.26   23.41
 -11   3  -9  246.71   37.60
 -11  -3  -9  214.94   16.84
 -11   3  -9  256.93   18.37
 -11  -3  -9  212.09   19.74
 -11   3  -9  219.30   17.26
 -11   3   9  222.71   27.30
 -11  -3   9  223.74   27.28
 -11  -3  10   99.06   20.26
 -11  -3 -10  159.10   13.21
 -11   3 -10  165.93   13.96
 -11   3  10  121.93   21.54
 -11  -3 -10  158.23   16.47
 -11   3 -10  148.35   13.60
 -11   3 -10  174.55   31.64
 -11   3 -11   43.03    7.56
 -11  -3  11   26.72   12.27
 -11   3  11   45.38   14.10
 -11  -3 -11   46.37    7.11
 -11  -3 -11   43.33    9.68
 -11   3 -11   48.88    8.08
 -11   3 -11   40.00   20.53
 -11   3 -12   69.81    8.89
 -11  -3 -12   63.60    7.45
 -11   3  12   30.64   15.21
 -11  -3  12   26.95   13.80
 -11  -3 -12   69.03   11.49
 -11   3 -12   60.43    9.40
 -11   3 -12   45.84   20.26
 -11  -3 -13   61.50    7.18
 -11   3  13   87.77   18.12
 -11  -3 -13   91.02   12.30
 -11  -3  13   64.80   16.61
 -11   3 -13   82.64    9.12
 -11   3 -13  101.13   24.11
  11  -3 -14  253.95   19.37
 -11  -3 -14  227.17   20.22
 -11  -3 -15   15.23    7.12
  11  -3 -15   26.95    6.59
 -11   3 -16    7.76    5.89
  11  -3 -16    7.83    4.90
 -11   3 -17   23.26    6.31
  11  -3 -17   15.61    4.51
  11  -3 -18   40.86    4.90
 -11   3 -18   59.27    7.74
 -11   3 -19   36.61    5.86
 -11   3 -20    3.70    3.01
 -12   3   0   47.67    8.57
 -12  -3   0   40.90    9.08
 -12  -3   0   44.83   12.40
 -12   3   0   35.14   10.79
 -12  -3   0   41.22    6.40
 -12   3   0   39.76    6.11
 -12  -3   1  492.51   42.37
 -12   3  -1  487.43   41.06
 -12   3   1  491.30   31.78
 -12   3  -1  484.26   32.20
 -12   3   1  489.87   41.23
 -12  -3  -1  469.41   41.73
 -12  -3   1  505.52   29.67
 -12   3   1  487.09   29.07
 -12  -3   1  513.88   33.57
 -12  -3  -1  488.33   29.49
 -12   3  -1  472.93   29.04
 -12  -3   2    5.40    6.39
 -12   3   2    3.35    6.88
 -12  -3  -2    3.80    6.41
 -12  -3   2    3.53    4.05
 -12   3   2    1.26    4.05
 -12  -3  -2    1.81    8.22
 -12   3  -2   -1.66    7.33
 -12   3  -2    6.80    6.33
 -12  -3   2    8.83    8.52
 -12   3   2    3.67    4.52
 -12  -3  -2    7.31    4.51
 -12   3  -2    5.50    4.26
 -12  -3   3   -1.77    8.05
 -12   3   3    9.74    4.63
 -12  -3  -3    6.61    6.03
 -12   3   3   -1.69    7.72
 -12   3  -3    8.07    5.41
 -12  -3  -3    5.38    7.64
 -12   3  -3    1.66    8.00
 -12   3  -3    4.10    3.84
 -12  -3   3    0.44    4.09
 -12  -3   3    6.72    6.19
 -12  -3   4   50.84    9.49
 -12  -3   4   69.42   15.66
 -12  -3  -4   73.40   10.57
 -12   3   4   51.72   13.58
 -12   3  -4   54.89    8.90
 -12  -3  -4   66.77   15.33
 -12   3  -4   52.79    7.46
 -12   3   4   61.09    7.47
 -12  -3   4   55.93    7.40
 -12   3  -4   33.36   11.23
 -12   3  -5    8.45    9.03
 -12  -3  -5    1.83    7.80
 -12  -3   5   -1.79    8.42
 -12   3  -5    7.78    5.58
 -12  -3  -5   11.97    6.06
 -12  -3  -5   -0.61    6.13
 -12   3  -5    9.89    4.48
 -12  -3   5    5.97    5.61
 -12   3   5    8.75    8.46
 -12  -3   6  107.04   19.51
 -12   3   6  117.56   20.83
 -12  -3  -6  116.04   12.45
 -12   3  -6  119.32   12.65
 -12   3  -6  111.38   11.19
 -12   3  -6  118.00   19.48
 -12  -3   6  126.83   12.86
 -12  -3  -6  105.33   12.29
 -12  -3  -6  127.92   21.30
 -12   3  -6  112.87   27.04
 -12   3  -7  839.55   61.15
 -12  -3  -7  942.18   49.67
 -12  -3  -7  807.18   50.86
 -12   3  -7  835.50   48.40
 -12  -3  -7  847.22   62.63
 -12  -3  -7  884.03   49.26
 -12  -3   7  750.39   60.71
 -12   3   7  844.54   62.39
 -12   3  -7  960.58   78.13
 -12  -3   8   74.57   16.60
 -12  -3  -8   88.59   12.21
 -12  -3  -8   67.72   16.33
 -12   3  -8   81.97   16.81
 -12   3  -8   89.39    9.85
 -12   3   8   58.86   15.57
 -12  -3  -8   75.85    9.74
 -12  -3  -9   82.33    9.93
 -12   3  -9   74.19    9.87
 -12  -3   9   79.17   17.01
 -12   3  -9   78.32    9.90
 -12  -3  -9   69.70   11.47
 -12   3   9   67.00   15.99
 -12   3  10   11.29   10.97
 -12  -3  10   39.97   14.57
 -12   3 -10   57.88    8.51
 -12   3 -10   61.91    8.74
 -12  -3 -10   49.13    9.95
 -12  -3 -10   56.58    7.81
 -12   3 -10   56.61   19.83
 -12  -3  11   13.33   10.46
 -12   3  11   26.42   11.63
 -12   3 -11   29.99    6.87
 -12  -3 -11   26.43    5.86
 -12  -3 -11   36.02    8.87
 -12   3 -11   20.12    6.73
 -12   3 -11   29.65   17.62
 -12  -3 -12   67.36   11.19
 -12   3 -12   59.31    8.47
 -12  -3 -12   59.07    7.51
 -12  -3  12   48.85   14.19
 -12   3  12   61.72   15.35
 -12   3 -12   80.85   10.13
 -12   3 -12   70.36   21.13
 -12  -3 -13  109.92   10.04
 -12  -3 -13  135.94   14.60
 -12   3 -13  131.24   11.71
 -12   3 -13  150.29   13.70
  12  -3 -14   80.58   10.52
  12  -3 -15  209.41   16.25
  12  -3 -16    9.94    4.62
  12  -3 -17    0.30    3.19
 -12   3 -17   -2.71    4.77
 -12   3 -18   69.16    7.85
 -12   3 -19   -2.47    3.48
 -12   3 -20    5.40    2.28
 -13   3   0  883.48   66.22
 -13  -3   0  932.31   68.55
 -13   3   0  983.46   55.03
 -13  -3   0 1002.02   56.26
 -13  -3   0  972.41   53.17
 -13   3   0  932.43   52.54
 -13  -3  -1  283.54   19.46
 -13   3  -1  277.22   19.08
 -13  -3   1  282.69   30.92
 -13   3   1  287.08   20.99
 -13   3  -1  297.44   21.50
 -13   3  -1  265.15   29.31
 -13  -3   1  270.41   21.96
 -13  -3  -1  252.68   30.17
 -13   3   1  236.67   28.94
 -13  -3   1  263.47   19.04
 -13   3   1  263.55   18.86
 -13   3  -2  232.91   28.57
 -13   3   2  274.90   20.54
 -13   3  -2  312.08   22.18
 -13  -3  -2  293.41   32.23
 -13  -3   2  269.35   19.27
 -13   3   2  247.10   29.84
 -13   3   2  284.48   19.56
 -13  -3   2  302.45   22.47
 -13  -3  -2  280.82   21.87
 -13  -3   2  267.47   30.57
 -13   3   3  224.20   27.56
 -13   3  -3  236.96   28.54
 -13   3  -3  245.04   19.54
 -13   3  -3  244.21   17.71
 -13  -3  -3  224.75   29.12
 -13  -3   3  242.80   17.72
 -13   3   3  231.17   17.43
 -13  -3  -3  279.28   20.61
 -13  -3   3  260.60   20.35
 -13  -3   3  211.37   28.21
 -13  -3  -4    3.28    5.48
 -13   3   4   -0.46    4.42
 -13  -3   4    2.84    4.94
 -13  -3   4    1.90    7.18
 -13   3   4   -1.85    8.43
 -13   3  -4    3.34    5.42
 -13   3  -4    1.80   10.25
 -13   3  -4    2.54    4.08
 -13  -3   4   10.63    6.33
 -13  -3   5  674.02   52.58
 -13   3   5  592.57   50.54
 -13  -3  -5  582.52   50.88
 -13   3  -5  679.56   39.85
 -13  -3  -5  599.61   38.61
 -13  -3   5  637.56   37.33
 -13   3  -5  577.79   37.36
 -13   3   5  656.32   37.50
 -13  -3   5  778.06   40.61
 -13  -3  -5  653.51   39.20
 -13   3  -5  750.58   65.16
 -13   3  -5  618.92   51.03
 -13   3   6  380.74   38.78
 -13   3  -6  410.99   38.96
 -13  -3  -6  407.00   40.17
 -13  -3   6  429.35   26.77
 -13   3   6  425.57   26.69
 -13   3  -6  449.76   28.79
 -13  -3  -6  415.40   27.83
 -13   3  -6  391.31   26.85
 -13  -3   6  433.18   40.51
 -13   3  -6  538.72   54.15
 -13  -3  -7   82.46   10.20
 -13   3  -7   88.06   10.73
 -13   3   7   94.77   18.41
 -13  -3  -7   74.23   17.31
 -13   3  -7   66.92   15.82
 -13   3  -7   63.24    9.27
 -13  -3   7   69.23   16.34
 -13   3  -7   60.82   20.60
 -13  -3  -8  595.25   35.41
 -13  -3  -8  601.58   49.81
 -13   3  -8  522.72   46.86
 -13   3  -8  576.09   35.35
 -13  -3   8  563.01   48.65
 -13   3  -8  628.69   61.54
 -13   3   8  563.16   48.65
 -13  -3   9  559.85   50.31
 -13   3   9  600.31   50.98
 -13   3  -9  623.60   38.04
 -13  -3  -9  653.66   37.55
 -13   3  -9  647.77   38.24
 -13  -3  10   -9.54   15.35
 -13   3 -10    5.57    5.38
 -13   3 -10    4.79    5.19
 -13  -3 -10    1.98    4.72
 -13  -3 -11   34.20    6.42
 -13   3 -11   32.86    7.65
 -13   3 -11   33.48    7.03
 -13  -3 -12    3.96    3.99
 -13   3 -12    9.16    5.24
 -13   3 -12   11.78    5.93
 -13  -3 -13  436.21   25.91
 -13   3 -13  480.69   29.54
 -13   3 -14  307.25   21.66
  13  -3 -14  303.21   21.37
  13  -3 -15   39.78    6.99
  13  -3 -16   49.68    6.49
  13  -3 -17  122.03    8.96
 -13   3 -18    5.38    3.59
 -13   3 -19   11.84    3.12
 -14   3   0 1123.69   61.53
 -14   3   0 1051.71   76.61
 -14   3   0 1115.42   62.91
 -14  -3   0 1177.38   64.09
 -14  -3   0 1093.66   78.19
 -14  -3   0 1171.73   62.12
 -14  -3   1  233.06   30.37
 -14   3  -1  249.92   30.36
 -14   3   1  268.69   20.19
 -14   3  -1  295.07   21.25
 -14  -3  -1  264.21   20.78
 -14  -3  -1  270.39   31.98
 -14   3   1  252.16   30.37
 -14  -3   1  314.82   22.15
 -14  -3   1  264.29   19.73
 -14   3   1  278.67   19.77
 -14   3   2  190.99   26.89
 -14  -3   2  190.25   27.70
 -14   3   2  206.36   16.31
 -14   3  -2  223.73   17.87
 -14  -3  -2  160.79   25.73
 -14   3  -2  163.68   24.59
 -14  -3  -2  237.32   17.90
 -14  -3   2  185.28   15.63
 -14   3   2  191.56   15.62
 -14   3  -2  219.93   31.99
 -14   3   3   -7.75   12.07
 -14  -3   3  -11.98   12.44
 -14   3   3    7.45    4.52
 -14   3  -3    0.66    5.92
 -14  -3   3   -1.00    5.71
 -14   3   3    0.97    5.48
 -14  -3  -3   -2.03   11.55
 -14   3  -3   -1.89   10.10
 -14  -3  -3    0.63    6.03
 -14   3  -3    9.36    4.45
 -14   3  -3   -2.83   10.20
 -14   3  -4 1032.00   76.34
 -14   3   4 1145.72   78.49
 -14  -3  -4 1092.36   78.53
 -14  -3   4 1184.79   79.76
 -14   3  -4 1159.94   64.59
 -14   3  -4 1110.06   62.63
 -14  -3   4 1213.06   63.03
 -14   3   4 1206.88   62.68
 -14   3  -4 1150.17   88.37
 -14  -3   5   -0.49    4.69
 -14   3   5    5.72    4.67
 -14  -3   5    7.88    9.24
 -14   3   5    3.87    7.62
 -14   3  -5   10.32    6.10
 -14  -3  -5   -4.07   12.68
 -14   3  -5   -5.65   11.34
 -14   3  -5    5.92    4.79
 -14   3  -5    5.93   13.51
 -14  -3   6  135.14   21.72
 -14   3   6  142.52   22.59
 -14  -3   6  136.16   12.29
 -14   3  -6  153.87   14.43
 -14  -3  -6  136.01   13.52
 -14  -3  -6  118.25   21.34
 -14   3  -6  140.88   22.32
 -14   3  -6  128.46   12.72
 -14   3   6  150.43   12.75
 -14   3  -6  117.64   26.09
 -14  -3   7  410.61   40.03
 -14   3   7  335.79   37.82
 -14  -3   7  418.64   26.37
 -14  -3  -7  368.12   38.75
 -14   3  -7  401.89   27.55
 -14   3  -7  348.07   37.07
 -14  -3  -7  420.12   27.48
 -14   3  -7  430.99   27.40
 -14   3   7  421.24   26.37
 -14   3  -7  367.46   47.39
 -14  -3   7  460.42   26.84
 -14  -3  -8  909.17   69.67
 -14  -3  -8  996.96   55.36
 -14   3   8  870.26   68.49
 -14   3  -8  963.06   55.49
 -14  -3   8 1058.25   54.88
 -14   3   8 1079.99   54.99
 -14   3  -8  861.43   78.37
 -14  -3   8  905.11   69.03
 -14   3  -9   72.43    9.90
 -14  -3  -9   80.17    9.73
 -14   3 -10  120.64   11.90
 -14  -3 -10  113.57   11.23
 -14   3 -10  118.89   12.16
 -14  -3 -11   51.58    7.32
 -14   3 -11   57.08    8.09
 -14   3 -11   41.84    7.94
 -14  -3 -12  457.01   27.63
 -14   3 -12  474.41   29.94
 -14   3 -12  507.21   29.03
 -14  -3 -13   41.59    5.50
 -14   3 -13   45.76    7.76
  14  -3 -13   46.12    8.22
  14  -3 -14  117.55   11.37
 -14   3 -14  121.49   11.51
 -14   3 -15  117.87   10.85
 -14  -3  15  107.94    9.14
 -14   3  15  120.64    9.36
  14  -3 -15  111.38   10.20
  14  -3 -16  128.97    9.81
 -15   3   0   42.06    7.71
 -15  -3   0   24.79   13.39
 -15   3   0    9.87   11.12
 -15  -3   0   40.30    7.88
 -15  -3   1  125.01   12.12
 -15   3   1  144.09   12.35
 -15   3  -1   97.48   19.71
 -15   3   1  116.42   11.81
 -15   3  -1  136.50   13.06
 -15  -3  -1  134.69   13.14
 -15  -3   1   84.83   19.29
 -15   3   1   99.56   20.22
 -15  -3  -1   94.55   19.60
 -15  -3   1  112.57   12.61
 -15   3  -1  113.63   21.92
 -15   3   2   23.56    5.91
 -15  -3  -2   12.28   10.20
 -15  -3   2   24.97    7.39
 -15   3   2   17.62    6.07
 -15  -3   2   22.60   11.26
 -15   3   2   17.92   11.37
 -15   3  -2   19.31   11.03
 -15  -3   2   24.43    6.53
 -15   3  -2   25.73    6.87
 -15  -3  -2   20.77    7.33
 -15   3  -2   10.14   11.21
 -15  -3  -3  100.27   21.65
 -15  -3  -3  160.41   14.43
 -15   3  -3  149.70   14.21
 -15  -3   3  143.51   13.80
 -15  -3   3  133.89   22.33
 -15   3   3  130.56   22.29
 -15   3  -3   96.05   20.93
 -15  -3   3  158.49   13.37
 -15   3   3  174.70   13.90
 -15   3  -3  147.68   26.27
 -15  -3  -4  108.05   20.29
 -15  -3   4  101.60   18.95
 -15   3  -4  125.46   13.43
 -15   3   4  125.25   20.91
 -15   3  -4  114.46   20.31
 -15   3  -4  129.07   12.00
 -15  -3   4  148.42   13.30
 -15  -3   4  134.04   12.13
 -15   3   4  145.23   12.57
 -15   3  -4  151.66   26.55
 -15  -3   5   48.95   13.61
 -15   3   5   77.01   15.85
 -15   3  -5   45.84    8.68
 -15  -3   5   57.09    8.42
 -15  -3  -5   20.10   13.58
 -15   3  -5   14.97   13.20
 -15   3  -5   53.37    7.82
 -15  -3   5   61.69    7.96
 -15   3   5   67.77    8.08
 -15   3  -5   52.69   17.75
 -15   3   6   -0.93    4.75
 -15  -3   6   -5.78    8.76
 -15   3   6    1.90    7.48
 -15   3  -6    1.79    5.64
 -15  -3   6   -2.85    4.74
 -15  -3  -6   -0.57    5.27
 -15  -3  -6    1.97    7.42
 -15   3  -6    1.83    7.51
 -15   3  -6    4.27    4.46
 -15  -3   6    1.92    4.24
 -15   3  -6   -2.81   12.38
 -15   3  -7  233.27   18.72
 -15  -3  -7  237.75   18.53
 -15  -3   7  249.03   17.38
 -15   3  -7  225.91   18.09
 -15  -3   7  259.29   17.88
 -15   3   7  283.11   18.18
 -15   3   8   72.55    8.57
 -15   3  -8   82.24    9.86
 -15  -3  -8   76.16    9.39
 -15   3  -8   55.53    8.68
 -15  -3   8   76.74    8.64
 -15  -3  -9   79.76    9.34
 -15   3  -9   78.73    9.78
 -15  -3   9   81.91    9.01
 -15   3   9   71.41    8.30
 -15   3 -10   98.40   10.46
 -15   3 -10   91.34   10.35
 -15  -3  10   91.97    9.31
 -15   3  10   96.26    9.49
 -15  -3 -10   92.08    9.65
 -15   3 -11  114.34   10.54
 -15  -3 -11   96.50    9.56
 -15   3 -11   90.86   10.50
 -15  -3  11  121.02   10.11
 -15   3  11  101.79    9.68
 -15  -3 -12   79.41    7.92
 -15   3 -12   82.21    9.39
 -15  -3  12   82.58    8.34
 -15   3  12   93.38    8.51
  15  -3 -13   92.33   10.10
 -15  -3 -13   91.71    7.75
 -15   3 -13   99.31   10.02
 -15   3  13  104.14    8.99
 -15  -3  13  104.57    8.99
 -15  -3  14   36.11    4.92
  15  -3 -14   29.66    5.78
 -15   3 -14   38.53    6.08
 -15   3  14   31.25    4.73
  15  -3 -15   36.04    5.23
 -15   3 -15   34.74    5.58
 -15   3 -16    5.34    3.01
  15  -3 -16    1.67    1.92
 -15   3 -17   13.74    2.91
 -16   3   0   28.34    6.59
 -16  -3   0   34.79    7.67
 -16  -3  -1    4.53    5.65
 -16   3   1   -1.92    4.51
 -16   3  -1    0.54    4.83
 -16  -3   1    2.76    5.41
 -16   3   2   -1.75    4.04
 -16   3  -2    6.10    5.28
 -16  -3  -2    4.53    6.02
 -16  -3   2   -1.61    4.89
 -16  -3   2   -1.96    4.67
 -16   3   2    2.87    4.64
 -16  -3  -3  212.57   18.03
 -16  -3   3  242.44   18.03
 -16   3  -3  240.33   18.40
 -16  -3   3  243.23   17.64
 -16   3   3  252.04   17.59
 -16  -3   4   48.14    8.02
 -16  -3   4   55.68    7.97
 -16   3  -4   65.59    9.29
 -16  -3  -4   77.03    9.66
 -16   3   4   51.78    7.93
 -16  -3   5  138.96   12.36
 -16   3  -5  145.98   13.35
 -16  -3   5  147.78   12.73
 -16   3   5  133.32   12.22
 -16  -3  -6   16.72    5.84
 -16   3  -6   14.54    5.89
 -16  -3   6   15.15    5.05
 -16  -3   6   17.92    5.32
 -16   3   6   11.02    5.17
 -16   3  -6   16.42    5.28
 -16   3  -7   15.56    5.90
 -16   3   7    8.49    4.57
 -16  -3  -7   12.91    5.82
 -16   3  -7   17.11    5.36
 -16  -3   7   10.34    4.77
 -16   3  -8    3.45    4.73
 -16  -3   8   -0.82    4.34
 -16   3   8    1.62    4.56
 -16  -3  -8    3.25    5.03
 -16   3  -8    1.42    4.14
 -16   3   9   12.21    4.39
 -16  -3   9    6.96    4.22
 -16  -3  -9    9.36    4.79
 -16   3  -9    9.74    4.62
 -16   3  10    2.84    3.65
 -16  -3 -10    1.14    3.98
 -16   3 -10   12.05    4.40
 -16  -3  10    2.88    4.10
 -16   3 -11  244.42   16.10
 -16  -3 -11  226.91   15.20
 -16   3 -11  211.41   16.12
 -16   3  11  234.55   15.47
 -16  -3  11  226.97   15.35
 -16   3  12   10.74    3.98
 -16  -3 -12   23.93    4.05
 -16  -3  12    7.56    3.83
  16  -3 -12    7.86    5.30
 -16   3 -12   21.28    5.21
 -16  -3  13   -3.24    2.93
  16  -3 -13    1.95    3.87
 -16   3 -13    0.69    3.53
 -16  -3 -13    1.84    1.95
 -16   3 -14    4.73    3.14
  16  -3 -14    9.39    3.48
  16  -3 -15   12.83    2.82
 -17   3   0   59.10    7.88
 -17  -3   0   78.41    9.24
 -17   3  -1  163.42   13.39
 -17   3   1  143.14   12.43
 -17  -3  -1  170.69   14.07
 -17  -3   1  170.04   13.88
 -17   3   2    4.32    3.51
 -17   3  -2    5.72    5.04
 -17  -3   2    6.57    4.96
 -17  -3  -2    2.01    5.15
 -17   3  -3  154.97   13.25
 -17  -3  -3  145.10   13.41
 -17  -3   3  144.97   12.51
 -17  -3   3  155.21   12.79
 -17  -3   4  114.82   10.67
 -17   3   4  104.15   10.35
 -17  -3   4  125.43   10.88
 -17   3  -4  129.32   11.67
 -17  -3  -4  122.84   11.75
 -17  -3   5  151.58   11.82
 -17   3  -5  142.70   12.68
 -17  -3   5  148.87   12.11
 -17   3   5  139.51   11.82
 -17  -3   6    9.06    3.69
 -17   3  -6    7.41    5.07
 -17  -3   6    7.67    3.97
 -17   3   6    7.92    4.50
 -17   3   7   41.63    6.51
 -17   3  -7   59.84    7.60
 -17  -3   7   45.86    6.77
 -17  -3  -7   56.32    7.39
 -17  -3  -8   74.11    8.03
 -17  -3   8   54.36    7.25
 -17   3   8   66.63    7.28
 -17   3  -8   71.72    8.08
 -17  -3  -9  187.98   13.68
 -17  -3   9  183.81   13.40
 -17   3   9  200.65   13.61
 -17   3  10   29.91    5.15
 -17  -3 -10   43.04    5.66
 -17  -3  10   25.53    5.02
 -17  -3 -11   14.61    3.60
 -17  -3  11    7.05    3.23
 -17   3  11   12.95    3.40
  17  -3 -12   11.43    4.31
 -17  -3 -12   12.75    2.75
  17  -3 -13   70.35    6.74
  17  -3 -14   17.62    2.88
 -18  -3   0  312.80   19.94
 -18   3   0  287.41   18.74
 -18   3  -1  147.61   11.86
 -18  -3  -1  159.94   12.72
 -18   3   1  136.99   11.10
 -18  -3   1  177.02   12.93
 -18  -3   2  157.83   12.31
 -18  -3  -2  143.28   12.37
 -18   3  -2  163.05   12.46
 -18   3  -3    5.15    4.37
 -18  -3  -3    2.08    4.50
 -18  -3   3    0.72    3.77
 -18  -3   4  249.66   16.78
 -18  -3  -4  284.24   18.37
 -18   3  -4  267.62   17.96
 -18   3  -5    8.18    4.46
 -18  -3   5    5.05    3.33
 -18  -3   6  120.15    9.86
 -18   3  -6  114.32   10.09
 -18  -3   7  227.63   15.67
 -18   3   7  248.61   15.91
 -18   3  -7  256.58   16.62
 -18  -3  -7  254.20   16.53
 -18  -3   8  194.82   13.31
 -18   3   8  201.01   13.33
 -18   3  -8  197.62   13.90
 -18  -3  -8  211.53   13.91
 -18  -3   9   37.21    4.86
 -18  -3  -9   43.81    5.41
  18  -3 -10   28.15    5.33
 -18  -3 -10   21.47    3.78
 -18  -3 -11    1.27    2.00
  18  -3 -12   76.06    6.69
 -19  -3   0  301.88   17.82
 -19   3   0  259.26   16.43
 -19   3  -1   52.87    6.11
 -19  -3  -1   64.55    7.04
 -19  -3   1   73.44    7.03
 -19   3  -2   66.49    7.06
 -19  -3  -2   81.02    7.90
 -19  -3   2   77.31    7.28
 -19  -3  -3   81.71    8.09
 -19  -3   3   71.39    7.04
 -19   3  -3   90.74    7.81
 -19   3  -4    3.30    3.58
 -19  -3  -4    1.58    3.51
 -19  -3   4    1.55    2.65
 -19  -3  -5   40.46    5.63
 -19   3  -5   36.93    5.23
 -19   3  -6  151.08   10.86
 -19  -3  -7   90.03    7.60
 -19  -3  -8  174.34   11.36
  19  -3  -9    2.77    2.94
 -19  -3  -9    1.79    1.98
  19  -3 -10   13.16    2.96
 -20  -3   0    8.66    3.02
 -20  -3   1   80.85    6.86
 -20  -3  -1   96.40    7.31
 -20  -3   2    4.01    2.31
 -20  -3  -2    5.13    2.86
 -20  -3   3    1.03    1.77
 -20  -3  -3   -0.69    2.82
 -20  -3  -4    5.29    2.66
 -20  -3  -5   10.91    2.94
  20  -3  -5    7.80    3.05
  20  -3  -6    9.17    3.15
 -20  -3  -7   77.61    5.54
  20  -3  -7   57.69    5.67
  20  -3  -8    7.26    2.14
 -21  -3  -2    2.15    1.44
 -21  -3  -3    1.12    1.37
   0   4   0 2740.85  135.46
   0   4   0 2785.06  143.59
   0   4   1    3.68    3.70
   0   4   1    5.51    4.30
   0   4  -1    5.88    2.52
   0   4  -1    4.75    4.85
   0   4   2 3341.43  168.37
   0   4  -2 3264.57  164.79
   0   4  -2 3164.96  170.95
   0   4  -2 3437.37  168.20
   0   4  -3   40.27    6.93
   0   4  -3   28.92    5.51
   0   4  -4   11.02    4.41
   0   4  -4   10.28    4.20
   0   4  -5   37.42    6.77
   0   4  -5   38.11    7.20
   0   4  -6 5583.59  276.67
   0   4  -6 5457.15  274.24
   0   4  -7   11.16    3.96
   0   4  -7   14.44    6.65
   0   4  -8 3211.24  159.51
   0   4  -8 2913.63  152.66
   0   4  -9   38.86    6.21
   0   4  -9   48.61   10.78
   0   4 -10  295.92   27.28
   0  -4 -11   28.07    5.19
   0   4 -11   39.56   11.57
   0   4 -12   60.07   14.06
   0  -4 -12   67.04    7.74
   0  -4 -13    1.73    3.45
   0   4 -13   -1.75    9.12
   0   4 -13    7.90    3.76
   0  -4 -13   -1.18    3.78
   0   4 -14 1749.51   90.87
   0   4 -14 1729.48   91.45
   0   4 -14 1759.52  108.72
   0  -4 -14 1788.81   91.05
   0  -4 -14 1766.30   91.05
   0   4 -15    5.07    5.20
   0  -4 -15    6.02    5.95
   0  -4 -15    9.32    4.72
   0   4 -15    8.52    5.33
   0   4 -15    2.05   10.42
   0  -4 -16  266.94   19.67
   0   4 -16  299.72   20.72
   0   4 -16  276.99   33.22
   0   4 -16  309.76   20.42
   0  -4 -16  274.38   18.99
   0  -4 -17    8.38    4.63
   0   4 -17    7.40    5.47
   0   4 -17    2.18    8.93
   0   4 -17    5.79    4.64
   0   4 -18    3.29    4.99
   0   4 -18   -0.47    4.08
   0  -4 -18    4.32    4.94
   0   4 -19    2.16    4.40
   0  -4 -19    0.89    4.82
   0   4 -19    9.42    5.26
   0   4 -20  113.81   10.65
   0  -4 -20  119.98   10.76
   0   4 -20  129.92   11.05
   0   4 -21    3.88    3.50
   0  -4 -21   -0.66    4.49
   0   4 -21    8.21    4.43
   0  -4 -22  226.60   15.08
   0  -4 -23    1.57    2.82
   1   4   0   36.40    6.80
   1   4   0   26.53    6.33
   1   4   0   21.34    3.63
  -1   4  -1 1701.86   87.34
   1   4  -1 1584.24   89.41
   1   4   1 1595.73   81.41
  -1   4  -1 1685.33   83.39
   1   4  -1 1605.46   83.67
   1   4   1 1776.44   88.51
   1   4   1 1681.12   89.83
  -1   4  -2 2033.33   89.79
   1   4  -2 2058.88   96.79
   1   4  -2 2083.81   90.16
   1   4  -2 2157.45   94.20
   1   4   2 2034.63   93.75
  -1   4  -2 2085.63   92.47
   1   4  -3  449.57   26.56
  -1   4  -3  412.23   26.04
  -1   4  -3  407.49   26.61
   1   4   3  395.32   27.68
  -1   4  -4    8.42    3.74
   1   4   4   13.56    4.91
   1   4  -4   12.42    4.54
  -1   4  -4   18.87    4.81
   1   4  -5  210.91   17.90
  -1   4  -5  232.84   18.40
  -1   4  -5  242.48   17.20
   1   4  -6 2341.08  127.39
  -1   4  -6 2490.93  127.90
  -1   4  -6 2455.77  124.39
  -1   4  -7 3819.01  198.71
   1   4  -7 4277.88  204.90
  -1   4  -7 4005.47  204.06
  -1   4  -8   74.87    6.26
  -1  -4  -8   65.66    6.04
   1   4  -8   83.88   12.58
  -1   4  -8   71.57   11.84
   1   4  -8   76.85    9.73
   1   4  -9  749.29   47.02
  -1   4  -9  723.36   46.50
  -1   4  -9  668.69   35.95
  -1  -4  -9  670.40   35.88
   1   4  -9  644.34   40.23
  -1  -4 -10 1191.32   61.99
   1   4 -10 1268.89   74.69
  -1   4 -10 1259.88   74.42
  -1   4 -10 1209.77   62.11
  -1   4 -10 1311.80   77.96
   1   4 -10 1137.21   65.68
  -1  -4 -11   18.27    4.12
  -1  -4 -11    6.49    3.43
   1  -4 -11    9.50    3.85
   1   4 -11   15.67    9.04
  -1   4 -11    8.47    7.72
  -1   4 -11    9.94    3.79
  -1   4 -12   38.72    5.67
  -1  -4 -12   30.77    4.99
  -1  -4 -12   34.96    5.56
   1  -4 -12   33.60    5.82
   1   4 -12   22.33    9.92
  -1   4 -12   37.75   11.86
  -1   4 -12   41.87    6.04
   1   4 -13  443.07   39.42
  -1   4 -13  451.43   26.96
  -1   4 -13  450.00   39.33
  -1   4 -13  451.58   26.39
  -1  -4 -13  432.09   26.15
   1  -4 -13  433.47   26.86
  -1  -4 -13  420.17   26.39
   1  -4 -14  305.54   20.84
  -1   4 -14  293.80   20.97
   1   4 -14  366.61   21.56
  -1   4 -14  314.31   33.32
  -1   4 -14  317.71   20.80
  -1  -4 -14  306.19   20.53
   1   4 -14  362.82   35.77
  -1  -4 -14  286.39   20.09
   1   4 -15 1059.98   74.67
  -1  -4 -15  988.85   55.84
   1  -4 -15 1070.49   56.77
   1   4 -15 1124.51   57.64
   1   4 -15 1061.00   56.93
   1  -4 -15 1069.12   57.01
  -1   4 -15 1056.43   73.95
  -1   4 -15 1014.25   56.56
  -1  -4 -15  987.51   56.46
  -1   4 -15 1066.90   57.83
   1  -4 -16   51.26    7.67
  -1   4 -16   32.22    6.90
  -1  -4 -16   18.55    6.26
   1  -4 -16   48.14    6.82
  -1   4 -16   46.76    7.42
   1   4 -16   52.77    7.82
   1   4 -16   51.95   16.27
   1   4 -16   55.15    8.06
   1   4 -17    0.49    4.03
   1  -4 -17   -1.00    4.22
  -1  -4 -17    6.26    4.18
  -1   4 -17    6.65    4.42
  -1   4 -17    8.78    5.73
   1   4 -17   -0.54    4.55
   1   4 -17   11.03   11.77
  -1   4 -18  118.79   11.61
   1   4 -18  101.46   10.26
   1  -4 -18   91.77   10.32
  -1   4 -18  102.37   10.21
  -1  -4 -18   92.44   10.05
   1   4 -18   92.41   10.37
  -1   4 -19   14.48    5.47
   1   4 -19    9.12    4.98
  -1  -4 -19   10.53    5.10
   1  -4 -19    9.98    5.54
  -1   4 -19   14.85    5.62
   1   4 -19   15.58    5.51
   1   4 -20   19.00    5.51
  -1   4 -20   13.21    5.22
  -1  -4 -20   18.08    5.34
  -1   4 -20   25.34    5.77
   1   4 -20   23.11    5.09
   1  -4 -20   17.93    5.37
  -1   4 -21  179.03   13.07
   1   4 -21  174.29   12.44
   1   4 -21  175.03   12.72
   1  -4 -21  184.07   13.19
  -1  -4 -21  217.94   14.44
  -1   4 -21  172.80   12.81
  -1  -4 -21  175.08   13.14
  -1   4 -22   19.12    3.67
  -1  -4 -22   26.47    4.98
  -1  -4 -23   54.32    5.44
   1  -4 -23   49.39    5.28
   2   4   0 2309.73  109.19
  -2   4   0 2381.71  109.83
  -2   4   1  409.03   21.96
   2   4   1  438.50   30.40
  -2   4   1  479.30   30.97
   2   4   1  446.13   29.33
   2   4  -1  478.65   30.87
  -2  -4   1  433.97   22.61
  -2   4  -1  467.75   30.90
   2   4   2   13.58    5.38
  -2  -4   2    7.74    2.17
  -2   4   2   11.93    2.32
  -2   4  -3  965.75   54.33
   2   4   3 1019.78   56.88
   2   4   4    5.53    4.11
   2   4  -4    8.86    4.74
  -2   4  -4   10.65    4.53
   2   4   5  500.93   33.17
  -2   4  -5  519.88   33.19
   2   4  -5  516.49   33.50
   2   4  -6  882.10   51.48
  -2   4  -6  815.25   50.46
  -2   4  -7 1261.48   73.55
   2   4  -7 1321.94   74.36
   2   4  -8 1397.91   78.14
  -2   4  -8 1445.63   78.18
  -2   4  -8 1328.11   67.52
  -2  -4  -8 1304.79   67.32
  -2   4  -9  219.00   22.15
  -2   4  -9  238.63   14.62
  -2  -4  -9  218.31   14.32
  -2   4 -10   68.46    6.96
  -2  -4 -10   71.95    6.93
   2   4 -10   82.06   14.61
  -2   4 -10   59.92   12.68
  -2   4 -11  841.38   47.91
  -2  -4 -11  879.25   48.11
   2  -4 -11  920.09   49.09
   2   4 -11  947.32   61.20
  -2   4 -11  945.53   60.89
  -2   4 -11  901.30   47.55
  -2  -4 -11  893.16   47.44
  -2   4 -11  937.88   63.83
  -2   4 -12   20.61    4.72
   2  -4 -12   27.68    5.52
  -2  -4 -12   20.02    4.70
   2   4 -12   30.84   10.99
  -2   4 -12   23.48    5.01
  -2   4 -12   25.31    9.93
  -2  -4 -12   27.00    4.87
  -2   4 -13   -0.40    3.94
  -2  -4 -13    2.85    3.44
   2  -4 -13    5.77    4.02
  -2  -4 -13    0.78    4.03
   2   4 -13    1.79    7.88
  -2   4 -13    4.79    3.81
  -2   4 -13    5.20    7.12
   2   4 -14  580.88   49.76
   2  -4 -14  601.64   35.69
  -2  -4 -14  601.58   34.76
  -2   4 -14  635.29   36.39
  -2   4 -14  594.50   35.03
  -2  -4 -14  624.88   35.28
   2   4 -15  636.68   50.63
  -2   4 -15  515.47   31.89
   2  -4 -15  599.51   32.86
  -2   4 -15  491.55   32.63
   2   4 -15  629.63   33.10
  -2  -4 -15  532.63   32.04
  -2  -4 -15  482.60   30.87
   2  -4 -16  118.74   11.51
   2   4 -16  126.46   11.73
   2   4 -16  115.20   11.17
   2  -4 -16  123.01   11.62
  -2   4 -16  110.58   11.00
  -2  -4 -16  117.50   11.21
   2   4 -16   84.97   19.73
  -2   4 -16  135.32   12.77
   2  -4 -17    1.52    4.25
   2  -4 -17    6.78    3.77
  -2   4 -17    5.61    4.39
  -2  -4 -17    6.59    4.36
  -2   4 -17   15.54    6.13
   2   4 -17    0.52    4.45
   2   4 -17    6.63    9.07
   2   4 -17    7.82    4.42
   2   4 -18   30.17    6.48
  -2   4 -18   24.86    6.07
  -2  -4 -18   26.19    6.19
   2  -4 -18   24.07    6.50
  -2   4 -18   32.67    7.28
   2   4 -18   37.69    6.63
   2   4 -19  161.15   13.04
  -2   4 -19  183.85   14.48
   2   4 -19  157.16   12.93
   2  -4 -19  133.65   12.76
  -2   4 -19  149.88   12.71
  -2  -4 -19  156.10   12.89
   2  -4 -20   38.40    6.64
  -2   4 -20   37.29    6.21
  -2  -4 -20   42.36    6.55
   2   4 -20   35.43    6.33
  -2   4 -20   49.00    7.26
   2   4 -20   38.76    5.80
   2   4 -21   -0.92    4.53
   2  -4 -21   -1.93    4.68
  -2   4 -21   -0.31    4.15
  -2  -4 -21   -2.23    4.74
  -2   4 -21    6.15    4.12
  -2  -4 -21   11.79    4.65
  -2  -4 -22  153.94   10.88
  -2   4 -22  124.94    9.64
  -2  -4 -23   15.90    3.25
   2  -4 -23   19.22    3.42
  -3  -4   0   82.83    7.56
  -3   4   0   94.03    7.32
   3   4   0   88.73   11.29
  -3   4   0  102.84   11.95
  -3  -4   1  739.51   41.81
  -3   4   1  754.63   41.27
  -3   4  -1  822.40   41.61
  -3  -4  -1  790.91   41.87
   3   4   1  803.41   48.20
  -3   4   1  805.01   48.47
   3   4  -1  794.55   48.22
  -3   4  -1  832.25   48.65
  -3  -4   2  179.84   12.63
  -3   4   2  185.61   12.31
  -3  -4  -2  159.66   11.97
  -3   4  -2  168.25   11.95
   3   4   2  169.28   15.62
   3   4   3  226.92   18.69
   3   4   4   44.52    7.92
   3   4   5   65.96    9.58
   3   4   6  284.47   21.27
  -3   4  -6  242.49   21.14
   3   4  -6  266.82   22.49
   3   4  -7 1358.92   79.10
  -3   4  -7 1387.83   78.55
  -3  -4  -8   28.40    4.19
  -3   4  -8   33.24    4.49
  -3   4  -8   37.63    9.19
   3   4  -9  113.75   16.70
  -3   4  -9  162.34   18.82
  -3   4  -9  153.73   10.71
  -3  -4  -9  158.66   10.67
   3  -4 -10  207.81   13.68
   3   4 -10  220.63   22.28
  -3   4 -10  126.61   10.80
  -3   4 -10  127.49   17.38
  -3   4 -10  149.33   10.91
  -3  -4 -10  140.74   10.67
  -3  -4 -11  155.01   12.54
   3  -4 -11  184.07   14.03
   3   4 -11  207.99   23.00
  -3   4 -11  156.04   12.55
  -3   4 -11  177.48   12.53
  -3  -4 -11  172.15   12.22
  -3   4 -11  173.23   25.14
  -3  -4 -12    1.07    3.66
  -3   4 -12    4.39    3.75
   3   4 -12    6.66    8.68
  -3  -4 -12    1.95    2.92
  -3   4 -12    0.45    3.60
   3  -4 -12    2.96    3.59
  -3   4 -12   -3.90    7.68
   3  -4 -13  336.13   23.50
   3   4 -13  364.91   35.50
  -3   4 -13  378.20   23.73
  -3  -4 -13  365.36   22.71
  -3   4 -13  383.83   22.90
  -3  -4 -13  351.36   22.46
  -3  -4 -14   98.07   10.32
   3  -4 -14  158.68   12.89
  -3   4 -14  114.25   11.59
   3   4 -14  134.11   22.80
  -3   4 -14  134.10   11.32
  -3  -4 -14  133.87   11.22
  -3   4 -15  345.53   22.47
   3   4 -15  281.50   33.99
  -3   4 -15  335.08   20.92
  -3  -4 -15  307.59   20.62
   3  -4 -15  255.62   20.36
  -3   4 -16   14.79    5.82
  -3  -4 -16   25.88    6.24
   3  -4 -16   30.10    6.02
  -3   4 -16   35.70    7.72
   3   4 -16   21.87   12.52
   3   4 -16   44.99    7.25
  -3   4 -17    9.70    4.79
  -3  -4 -17    5.59    4.68
   3  -4 -17   12.43    4.68
  -3   4 -17   12.64    5.71
   3   4 -17   13.21   10.93
   3   4 -17   11.29    4.83
   3   4 -17    8.77    4.70
   3  -4 -17   12.22    5.42
   3   4 -18    9.84    5.53
   3  -4 -18    6.88    5.61
  -3  -4 -18    6.80    5.03
  -3   4 -18   11.21    4.78
  -3   4 -18   15.57    5.96
   3   4 -18   12.08    4.78
   3   4 -19   32.94    6.78
  -3   4 -19   27.73    5.99
   3  -4 -19   32.90    6.54
  -3  -4 -19   28.69    6.32
  -3   4 -19   32.13    7.03
   3   4 -19   35.92    6.00
   3   4 -20    1.11    4.16
  -3   4 -20   -2.17    4.40
  -3  -4 -20    0.37    4.46
  -3   4 -20    6.43    4.47
   3  -4 -20   -1.94    4.91
  -3  -4 -20    6.27    4.53
  -3   4 -21  195.62   13.15
   3   4 -21  144.24   11.74
   3  -4 -21  154.97   12.21
  -3   4 -21  151.78   11.89
  -3  -4 -21  161.81   12.26
  -3   4 -22    8.03    3.19
  -3  -4 -22    4.80    3.77
  -3  -4 -23   15.55    3.32
   3  -4 -23   15.26    3.35
  -4   4   0 1973.72  104.01
  -4   4   0 1889.86   98.19
   4   4   0 2016.58  104.28
  -4  -4   0 1891.31   98.87
  -4  -4  -1  460.04   26.79
  -4   4  -1  475.60   26.28
  -4  -4   1  394.81   26.03
   4   4   1  483.81   31.22
  -4   4   1  444.75   30.80
  -4   4   1  390.39   25.37
   4   4  -1  396.40   29.88
  -4   4  -1  454.43   30.87
   4   4   2  154.27   15.71
  -4   4   2  161.59   15.86
  -4  -4  -2  177.68   13.35
  -4   4   2  159.53   12.53
  -4  -4   2  145.93   12.78
  -4   4  -2  173.30   12.96
  -4  -4  -3  304.12   19.93
  -4  -4   3  246.32   19.37
  -4   4   3  264.28   19.06
  -4   4  -3  307.01   19.64
   4   4   4   26.68    6.47
  -4  -4  -4   31.71    5.50
   4   4   5   13.66    5.08
   4   4   6  252.33   20.41
   4   4   7  537.25   35.26
   4   4  -7  583.73   39.59
  -4   4  -7  537.89   29.09
  -4  -4  -7  536.79   29.03
   4   4  -8 1477.12   92.48
  -4   4  -8 1642.46   82.13
  -4  -4  -8 1644.07   82.03
   4   4  -9   54.91   12.47
  -4   4  -9   50.44    5.69
  -4  -4  -9   41.07    5.21
  -4  -4 -10   48.73    6.37
   4  -4 -10   63.28    8.01
   4   4 -10   70.26   14.11
  -4   4 -10   53.53    6.38
  -4  -4 -10   60.12    6.26
  -4  -4 -11  612.45   35.17
   4   4 -11  577.26   46.63
   4  -4 -11  595.45   36.57
  -4   4 -11  652.39   35.97
  -4   4 -11  659.07   35.04
  -4  -4 -11  613.83   34.60
  -4   4 -11  651.23   54.38
  -4  -4 -12   30.95    5.29
  -4   4 -12   33.37    5.17
  -4  -4 -12   38.43    5.57
   4   4 -12   22.34   12.00
   4  -4 -12   26.56    6.01
  -4   4 -12   38.89    6.17
  -4   4 -12   28.49   13.05
   4  -4 -13   21.87    5.95
  -4   4 -13   12.57    4.56
  -4  -4 -13   19.14    4.91
   4   4 -13   26.12   11.46
  -4   4 -13   14.62    5.24
  -4   4 -13    6.47    8.88
   4  -4 -14  594.22   36.88
   4   4 -14  552.62   49.80
  -4   4 -14  642.20   37.36
  -4   4 -14  617.23   35.68
  -4  -4 -14  648.70   35.86
   4  -4 -15  205.60   17.26
  -4   4 -15  265.00   19.05
   4   4 -15  196.14   29.22
  -4   4 -15  265.47   17.71
  -4  -4 -15  222.08   16.91
  -4   4 -16  188.12   15.80
   4   4 -16  160.23   13.58
   4   4 -16  156.88   25.39
  -4   4 -16  201.15   14.68
  -4  -4 -16  202.93   14.67
   4  -4 -16  149.33   13.93
   4  -4 -17    6.45    4.39
  -4   4 -17    8.29    4.40
  -4  -4 -17   12.93    4.88
  -4   4 -17    1.81    5.67
   4   4 -17   -2.18   10.25
   4   4 -17    5.96    4.02
  -4   4 -18   54.48    8.14
  -4   4 -18   80.96   10.00
   4   4 -18   81.32    8.53
   4   4 -18   78.55    9.18
   4  -4 -18   78.60    9.72
  -4  -4 -18   71.84    8.89
  -4   4 -19   93.30    9.78
   4   4 -19   60.60    7.29
   4   4 -19   65.07    8.34
   4  -4 -19   74.45    9.11
  -4   4 -19   67.37    8.22
  -4  -4 -19   70.53    8.54
   4  -4 -20   50.26    7.30
  -4   4 -20   79.71    8.75
   4   4 -20   59.09    7.46
  -4  -4 -20   91.36    8.87
  -4   4 -20   74.57    7.75
  -4  -4 -20   73.76    7.88
   4   4 -21   -2.52    3.74
  -4   4 -21   -1.92    3.67
   4  -4 -21   -0.88    3.81
  -4   4 -21    6.31    4.12
  -4  -4 -21    0.36    3.75
  -4   4 -22   88.01    7.92
  -4  -4 -22  113.64    8.60
  -4  -4 -23   16.26    2.91
   4  -4 -23   13.16    2.91
  -5   4   0   46.31    6.68
   5   4   0   46.98    8.50
  -5   4   0   37.90    7.62
  -5  -4   0   44.59    7.11
  -5   4   1 1990.84  102.07
  -5  -4  -1 1945.98  102.86
   5   4   1 2038.70  106.14
  -5   4   1 2013.67  106.15
  -5   4  -1 1919.31  101.87
  -5  -4   1 1912.33  102.55
  -5   4   2 2895.08  148.64
  -5   4  -2 2954.02  148.69
  -5  -4   2 2762.69  149.07
   5   4   2 3038.83  153.15
  -5   4   2 2960.12  152.67
  -5  -4  -2 2955.53  149.59
  -5  -4  -3   23.57    5.85
  -5   4   3   33.29    6.57
  -5  -4   3   25.50    6.08
  -5   4  -3   20.20    5.62
  -5   4   4  175.23   15.49
  -5  -4  -4  163.69   15.21
  -5   4  -4  167.16   14.86
  -5  -4   4  159.41   15.51
   5   4   4  167.27   16.15
   5   4   5    6.51    4.55
  -5  -4  -5    8.39    4.92
  -5   4  -5    8.56    4.53
  -5   4  -6 1641.05   83.78
  -5  -4  -6 1713.99   83.94
   5   4   6 1633.09   91.11
  -5   4  -7 1717.89   86.55
  -5  -4  -7 1703.21   86.45
   5   4   7 1783.86   94.03
  -5   4  -8  125.78    9.71
  -5  -4  -8  131.52    9.71
  -5   4  -9  189.77   14.04
  -5   4  -9  211.22   13.72
  -5  -4  -9  201.99   13.47
   5  -4 -10  707.04   42.18
   5   4 -10  780.85   53.83
  -5   4 -10  732.89   39.97
  -5  -4 -10  744.79   39.87
   5  -4 -11  111.01   11.28
   5   4 -11  120.49   19.14
  -5   4 -11  100.90    9.25
  -5  -4 -11   90.42    8.85
  -5   4 -11  141.22   24.42
  -5   4 -12   11.03    4.14
  -5  -4 -12   11.51    4.35
   5   4 -12   10.72    9.76
  -5   4 -12    5.51    4.40
   5  -4 -12   10.89    4.95
  -5   4 -12   16.92   11.68
   5  -4 -13  246.89   18.75
   5   4 -13  185.47   26.79
  -5   4 -13  246.02   18.17
  -5  -4 -13  241.35   16.89
  -5   4 -13  265.39   17.35
  -5   4 -13  233.20   31.82
   5   4 -14  145.97   24.78
  -5   4 -14  193.46   16.25
  -5   4 -14  214.98   15.68
  -5  -4 -14  223.91   15.85
   5  -4 -14  208.16   16.90
  -5   4 -14  177.94   28.82
   5  -4 -15  772.47   46.15
  -5   4 -15  848.73   47.19
   5   4 -15  716.61   60.37
  -5   4 -15  818.52   45.41
  -5  -4 -15  827.75   45.45
  -5   4 -16   47.32    8.27
   5   4 -16   34.54   13.17
   5   4 -16   36.03    6.28
   5  -4 -16   39.58    7.26
  -5   4 -16   56.98    7.33
  -5  -4 -16   50.27    7.05
  -5  -4 -16   40.68    7.24
   5  -4 -17   40.70    6.68
  -5   4 -17   24.45    5.98
  -5  -4 -17   19.48    5.80
  -5   4 -17   31.64    7.60
   5   4 -17   34.10    5.99
   5  -4 -18   73.07    8.12
  -5   4 -18   96.65   10.81
   5   4 -18   86.58    8.59
  -5   4 -18   77.56    8.80
  -5  -4 -18   83.13    9.13
   5  -4 -19   19.89    5.90
  -5   4 -19   22.91    5.39
  -5  -4 -19   21.67    5.55
  -5   4 -19   28.09    6.57
   5   4 -19   18.80    5.64
   5  -4 -20   -7.42    4.88
  -5   4 -20   -5.50    4.29
  -5   4 -20    3.62    4.53
   5   4 -20   -8.06    4.75
  -5  -4 -20    0.82    4.02
  -5   4 -21  121.53   10.53
  -5  -4 -21  130.99   10.33
  -5   4 -22   28.07    4.23
  -5  -4 -22   28.62    4.44
  -6  -4   0 1316.56   73.03
  -6   4   0 1310.05   72.05
   6   4   0 1275.73   74.17
  -6   4   0 1360.42   74.77
  -6  -4  -1   61.64    8.65
  -6  -4   1   42.65    8.02
  -6   4   1   28.36    6.43
  -6   4  -1   43.87    7.34
   6   4   1   49.70    8.57
  -6   4   1   39.55    7.89
  -6  -4   2  433.78   29.61
  -6  -4  -2  430.45   29.40
  -6   4  -2  425.42   28.51
   6   4   2  461.64   30.98
  -6   4   2  394.64   29.58
  -6   4   2  396.71   28.12
  -6   4  -3    6.40    4.22
  -6  -4   3    3.23    4.12
  -6   4   3    7.31    4.34
  -6  -4  -3   12.65    5.26
   6   4   3   11.04    5.65
  -6   4   3    8.03    4.55
  -6  -4   4  189.19   18.30
  -6  -4  -4  183.49   17.79
  -6   4  -4  209.78   17.81
  -6   4   4  205.13   18.08
  -6   4  -5   65.35   10.28
  -6   4   5   62.47   10.48
  -6  -4   5   71.48   11.75
  -6  -4  -5   58.20   10.26
   6   4   5   67.76   10.57
  -6  -4  -6  977.80   57.68
   6   4   6  900.52   55.78
   6   4   7   10.17    5.04
  -6   4  -7   13.22    3.32
   6   4   8  587.49   39.14
  -6   4  -8  599.52   34.79
  -6   4  -8  575.16   34.07
  -6  -4  -8  646.90   34.44
  -6   4  -8  631.49   33.62
  -6  -4  -8  611.60   33.42
  -6   4  -9   18.36    4.34
  -6  -4  -9   22.93    4.41
  -6   4  -9   20.34    4.80
  -6  -4  -9   15.09    7.06
   6   4  -9   15.27    8.91
  -6   4  -9   21.16    4.84
  -6   4 -10   38.58    5.75
  -6  -4 -10   20.31    7.91
   6   4 -10   35.83   11.40
  -6   4 -10   44.46    6.27
  -6  -4 -10   33.88    5.54
   6  -4 -11   30.40    6.77
  -6   4 -11   25.43    5.05
  -6  -4 -11   23.78    5.15
  -6  -4 -11   22.34    8.17
   6   4 -11   39.99   12.88
  -6   4 -11   43.32   16.92
   6  -4 -12   25.83    6.45
  -6   4 -12   13.18    4.83
  -6  -4 -12   15.59    4.67
  -6  -4 -12   31.89    8.85
   6   4 -12   29.64   11.39
  -6  -4 -12   22.65    5.40
  -6   4 -12   21.10   13.46
   6  -4 -13    6.85    5.17
  -6   4 -13    8.27    3.69
   6   4 -13   -1.96    9.21
  -6   4 -13    3.32    4.81
  -6  -4 -13   15.32    4.40
  -6  -4 -13    9.46    4.62
  -6   4 -13   -2.59   11.42
   6  -4 -14  849.60   50.32
  -6   4 -14  848.55   49.92
   6   4 -14  882.12   65.62
  -6  -4 -14  940.35   49.86
  -6   4 -14  909.51   48.97
  -6   4 -14  774.71   67.88
  -6  -4 -14  890.79   48.84
   6  -4 -15    2.95    5.50
  -6   4 -15    0.46    4.75
  -6  -4 -15    0.91    5.04
   6   4 -15   -2.11   10.21
  -6   4 -15    9.57    5.98
  -6  -4 -15    8.47    5.69
   6  -4 -16   73.31    9.41
  -6   4 -16   89.86   10.59
   6   4 -16   60.35    7.69
   6   4 -16   65.86   16.46
  -6  -4 -16   93.29    9.92
  -6   4 -16   85.57    9.18
  -6  -4 -16   76.85    8.80
   6  -4 -17    4.30    4.35
  -6  -4 -17   -1.76    4.71
  -6   4 -17   -3.51    4.87
  -6   4 -17    5.92    5.67
   6   4 -17    8.93    3.98
   6  -4 -18   20.06    4.80
  -6   4 -18    8.53    4.64
  -6   4 -18   23.49    6.88
  -6  -4 -18    6.52    4.59
  -6   4 -19   13.23    5.73
   6   4 -19    3.39    4.24
   6  -4 -19   -1.99    5.17
   6  -4 -20   26.95    5.67
   6   4 -20   31.92    5.82
  -6   4 -20   65.62    7.83
  -6  -4 -20   71.16    7.29
  -6  -4 -21    0.31    3.10
  -6   4 -21    4.16    3.59
  -6   4 -22   95.69    7.59
  -7   4   0   25.46    6.38
  -7  -4   0   24.27    3.41
  -7   4   0   23.18    3.29
  -7  -4   0   30.00    6.98
  -7   4  -1 1254.10   67.37
  -7   4   1 1188.78   66.78
  -7  -4   1 1138.60   67.33
  -7  -4   1 1105.24   59.23
  -7   4   1 1161.06   59.07
  -7  -4  -1 1213.56   68.00
   7   4   1 1186.71   66.96
  -7   4   1 1138.53   66.40
  -7  -4  -1 1184.55   59.53
  -7   4  -1 1174.11   59.16
  -7   4   2 2446.54  127.47
   7   4   2 2348.72  127.23
  -7   4  -2 2450.68  127.43
  -7   4   2 2457.38  127.69
  -7  -4  -2 2321.63  127.92
  -7  -4   2 2416.47  128.59
  -7  -4   3   93.00   13.06
  -7   4  -3  103.28   12.43
  -7  -4  -3   77.28   11.81
   7   4   3   88.30   11.89
  -7   4   3   89.59   11.79
  -7   4   3   98.64   12.59
   7   4   4   37.34    8.39
  -7   4   4   29.63    7.57
  -7  -4   4   33.13    8.49
  -7  -4  -4   44.19    9.24
  -7   4  -4   38.14    8.56
  -7   4   4   33.42    7.81
  -7   4   5   36.26    8.96
  -7  -4   5   32.11    8.93
  -7  -4  -5   47.46    9.68
  -7   4  -5   55.96   10.10
  -7  -4  -6 1008.01   59.15
  -7   4  -6  928.57   57.16
  -7   4   6  886.71   57.68
   7   4   6  946.54   56.86
  -7  -4   6  855.52   57.79
  -7   4  -7  977.63   54.16
  -7  -4  -7 1008.20   58.30
  -7   4  -7  970.77   52.96
  -7  -4  -7 1026.20   53.10
   7   4   7 1005.92   59.73
   7   4   8   40.71    8.61
  -7   4  -8   47.25    6.77
  -7   4  -8   49.91    6.27
  -7  -4  -8   59.36   10.51
  -7  -4  -8   58.34    6.61
  -7   4  -9   45.84    6.87
  -7  -4  -9   54.63    6.54
  -7   4  -9   53.36    6.70
  -7   4 -10  401.80   24.67
  -7   4 -10  372.50   24.37
  -7  -4 -10  392.62   24.27
  -7   4 -10  444.27   24.25
  -7  -4 -10  377.27   23.46
   7   4 -10  456.00   38.43
  -7   4 -11   17.02    4.98
  -7  -4 -11   16.36    4.83
  -7  -4 -11   29.43    8.83
   7   4 -11   42.07   13.52
  -7   4 -11   16.09    5.30
  -7  -4 -11   24.15    5.43
  -7   4 -11   52.57   18.23
  -7  -4 -12   78.34   12.38
   7   4 -12   82.53   17.81
  -7  -4 -12   97.87    9.91
   7  -4 -12   89.40   11.19
  -7   4 -12   98.38    9.60
  -7  -4 -12  110.99    9.82
  -7   4 -12   88.31   23.61
   7  -4 -13  152.48   14.80
  -7  -4 -13  111.08   15.13
   7   4 -13  132.57   22.73
  -7  -4 -13  185.57   13.97
  -7   4 -13  167.97   13.23
  -7  -4 -13  163.44   13.09
  -7   4 -13  138.71   26.55
   7  -4 -14  307.12   22.30
   7   4 -14  289.11   33.54
  -7  -4 -14  233.55   22.55
  -7   4 -14  324.38   21.91
  -7  -4 -14  313.69   21.07
  -7   4 -14  330.10   39.23
  -7   4 -14  313.44   20.55
  -7  -4 -14  289.13   20.05
   7  -4 -15  350.31   25.37
  -7   4 -15  412.42   26.41
   7   4 -15  337.09   37.64
  -7  -4 -15  406.36   25.58
  -7   4 -15  381.44   24.39
  -7  -4 -15  386.83   24.35
   7  -4 -16   84.16   10.04
  -7   4 -16   87.98   10.72
   7   4 -16   70.10    7.83
  -7  -4 -16   84.91    9.95
  -7   4 -16   78.90    9.00
   7  -4 -17   14.65    5.13
  -7   4 -17   18.01    6.32
   7  -4 -18   31.68    5.34
  -7   4 -18   25.52    6.78
  -7   4 -19   17.99    5.99
   7   4 -19   15.65    5.08
   7  -4 -19    9.15    4.69
   7   4 -20   50.93    6.41
   7  -4 -20   49.52    6.56
  -7   4 -20   83.76    8.56
  -7  -4 -20   75.53    7.45
  -7  -4 -21   70.32    6.73
  -7   4 -21   69.98    7.37
  -7   4 -22    5.95    2.62
  -8   4   0 1125.61   67.40
  -8  -4   0 1242.90   69.63
  -8  -4   0 1114.81   59.19
  -8   4   0 1169.99   58.98
  -8  -4   1  881.62   52.68
  -8   4   1  883.82   51.60
  -8  -4  -1  783.02   51.27
  -8   4  -1  772.00   50.10
  -8  -4   1  775.20   42.28
  -8   4   1  820.34   42.15
  -8  -4  -1  742.43   42.25
  -8   4  -1  844.62   42.29
   8   4   2   32.62    6.87
  -8  -4   2   26.74    4.39
  -8   4   2   35.23    6.96
  -8  -4   2   40.27    9.38
  -8  -4  -2   37.46    9.62
  -8   4  -2   21.26    7.10
  -8   4   2   28.07    4.39
  -8   4   2   38.52    8.82
   8   4   3 1644.44   91.79
  -8  -4  -3 1766.52   95.71
  -8   4  -3 1678.22   93.92
  -8   4   3 1718.18   94.75
  -8  -4   3 1678.85   95.43
  -8   4   3 1616.30   91.12
  -8   4   4  361.86   29.57
  -8  -4  -4  411.55   31.25
  -8   4  -4  368.00   29.23
  -8   4   4  384.06   28.07
   8   4   4  348.48   27.92
  -8  -4   4  391.80   31.03
  -8  -4   5  490.97   36.61
  -8   4  -5  484.88   35.41
  -8  -4  -5  490.94   36.48
  -8   4  -5  464.58   29.40
  -8   4   5  477.44   35.67
   8   4   5  468.28   34.49
  -8   4   5  452.88   33.56
  -8   4  -6  189.22   15.08
  -8  -4  -6  179.99   20.64
  -8   4  -6  201.45   20.55
  -8  -4  -6  171.69   17.01
  -8   4  -6  179.22   13.30
  -8   4   6  161.50   19.72
  -8  -4   6  182.05   20.63
  -8  -4  -6  208.74   13.91
   8   4   6  191.69   19.67
  -8  -4  -7 1288.09   70.88
  -8  -4  -7 1186.52   63.75
  -8   4  -7 1073.19   57.71
  -8  -4  -7 1144.23   58.00
  -8   4   7 1209.93   70.13
  -8  -4   7 1143.31   69.72
  -8  -4   7  884.88   61.14
  -8  -4  -7  888.25   61.51
   8   4   7 1216.35   66.38
  -8   4  -8  129.58   11.58
  -8   4   8  115.44   16.80
  -8  -4  -8   98.21   13.86
  -8   4  -8  127.14   10.76
  -8  -4   8  124.19   17.19
  -8  -4  -8  134.12   10.76
  -8  -4  -9  239.68   16.92
  -8  -4  -9  286.10   22.93
  -8   4  -9  246.56   17.10
  -8   4  -9  200.16   16.86
  -8  -4  -9  245.32   16.93
  -8   4 -10  121.56   11.75
  -8  -4 -10  149.00   11.82
  -8  -4 -10  154.37   17.26
   8   4 -10  183.07   23.88
  -8   4 -10  127.38   12.38
  -8  -4 -10  162.27   12.58
  -8   4 -10  172.54   31.61
  -8   4 -11  761.13   41.75
  -8  -4 -11  675.72   45.58
   8   4 -11  694.43   55.24
  -8   4 -11  736.81   41.31
  -8  -4 -11  681.13   40.66
  -8   4 -11  787.54   67.84
   8  -4 -12   49.18    8.88
  -8  -4 -12   39.98    9.87
   8   4 -12   75.43   16.88
  -8  -4 -12   36.19    6.97
  -8   4 -12   54.45   18.34
   8  -4 -13  134.70   13.84
  -8  -4 -13  111.21   14.72
   8   4 -13  140.59   22.59
  -8  -4 -13  149.74   12.68
  -8   4 -13  137.77   27.06
   8  -4 -14  218.05   17.76
  -8  -4 -14  159.14   17.93
   8   4 -14  198.43   27.43
  -8  -4 -14  234.54   16.93
  -8   4 -14  231.04   32.90
   8  -4 -15  620.63   37.00
   8   4 -15  552.12   50.01
  -8  -4 -15  619.27   35.97
  -8   4 -15  601.05   36.61
  -8   4 -15  519.74   53.43
   8  -4 -16   24.93    6.37
  -8   4 -16   21.14    6.58
  -8  -4 -16   25.53    6.31
   8  -4 -17    0.46    4.42
  -8   4 -17    7.30    5.83
   8  -4 -18   52.68    6.51
  -8   4 -18   54.03    8.17
  -8   4 -19  176.94   13.56
   8  -4 -19  142.27   11.84
  -8   4 -20   16.48    4.76
  -8   4 -21   20.76    4.22
  -9  -4   0  106.41   16.29
  -9   4   0  169.66   18.33
  -9  -4   0  143.04   10.74
  -9   4   0  145.42   10.35
  -9  -4   0  119.46   14.60
  -9  -4   1   19.74    4.10
  -9   4   1   22.49    4.07
  -9  -4   1   13.63    7.90
  -9   4   1   23.60    8.33
  -9  -4   1   21.70    7.82
  -9  -4  -1    6.22    7.00
  -9   4  -1    6.77    6.09
  -9  -4  -1   16.90    3.94
  -9   4  -1   23.16    3.93
  -9  -4  -2  610.42   42.31
  -9   4  -2  461.83   34.57
  -9  -4   2  587.26   42.08
  -9   4   2  644.36   42.19
  -9   4  -2  579.38   40.76
  -9  -4   2  620.97   32.19
  -9   4   2  592.20   31.60
  -9  -4   2  564.53   38.03
  -9  -4  -2  489.81   36.81
  -9   4   3  941.93   56.44
  -9  -4   3  971.48   57.77
  -9   4  -3  978.66   56.40
  -9   4  -3  803.40   48.74
  -9  -4  -3  943.01   56.92
  -9  -4   3  742.15   50.90
  -9  -4  -3  734.25   50.23
  -9  -4  -4  201.56   21.66
  -9   4  -4  208.05   16.42
  -9  -4   4  146.51   17.53
  -9  -4   4  173.02   20.43
  -9  -4  -4  135.98   16.68
  -9   4  -4  218.54   21.56
  -9   4   4  195.31   20.82
  -9   4  -5  317.66   21.43
  -9  -4   5  360.99   29.52
  -9   4   5  342.69   28.61
  -9   4  -5  254.24   17.90
  -9  -4  -5  304.65   27.66
  -9  -4  -5  286.59   18.60
  -9  -4   5  273.58   23.96
  -9  -4  -5  220.56   22.36
  -9   4  -5  317.65   27.01
  -9  -4   6  356.39   31.81
  -9   4  -6  372.81   31.38
  -9  -4  -6  393.83   32.84
  -9   4  -6  371.10   22.64
  -9   4  -6  421.63   25.38
  -9   4   6  354.09   31.33
  -9  -4  -6  355.11   22.58
  -9  -4   6  325.16   27.22
  -9  -4  -6  285.69   26.40
   9   4   6  397.40   31.32
  -9  -4   7   35.98    8.85
  -9   4   7   31.17   10.04
  -9  -4   7   29.32    9.98
  -9  -4  -7   20.22    8.21
  -9  -4  -7   27.21    9.33
  -9   4  -7   32.64    9.96
  -9  -4  -7   21.88    7.25
  -9   4  -7   37.65    5.74
  -9  -4  -7   31.16    5.57
  -9   4  -8   86.77    9.99
  -9  -4  -8   80.46   11.81
  -9   4   8   73.58   14.76
  -9  -4   8   64.71   14.49
  -9  -4  -8   96.09   13.05
  -9   4  -8   86.36    9.12
  -9  -4  -8   85.64    8.91
  -9  -4   8   81.38   11.11
  -9  -4  -9   62.20    9.62
  -9   4   9   47.81   12.97
  -9  -4   9   37.35   12.68
  -9   4  -9   53.66    8.52
  -9  -4  -9   61.07   11.49
  -9  -4  -9   58.56    7.80
  -9  -4  -9   57.37    7.70
  -9   4  -9   52.87    7.58
  -9  -4  10  322.45   32.38
  -9   4  10  316.82   32.30
  -9   4 -10  299.29   21.30
  -9  -4 -10  283.59   20.05
  -9  -4 -10  360.01   26.55
   9   4 -10  309.32   33.63
  -9   4 -10  297.27   21.01
  -9  -4 -10  321.06   20.99
  -9   4  11  593.92   48.18
  -9  -4  11  496.22   45.59
  -9   4 -11  605.74   35.01
  -9  -4 -11  542.17   32.84
  -9  -4 -11  621.02   39.85
   9   4 -11  604.62   50.21
  -9   4 -11  588.94   35.08
  -9  -4 -11  594.27   34.73
  -9   4 -11  665.83   62.80
   9  -4 -12    1.41    5.66
  -9  -4  12   -7.27   10.54
  -9  -4 -12    1.82    6.96
   9   4 -12   12.19   10.08
  -9   4 -12    1.14    4.62
  -9  -4 -12    8.40    4.85
  -9   4 -12   -6.31   15.23
   9  -4 -13   28.26    7.77
  -9   4  13    5.57    9.24
  -9  -4  13    3.67   10.05
   9   4 -13   32.80   13.22
  -9  -4 -13   13.95    7.53
  -9  -4 -13   19.64    5.88
  -9   4 -13   21.26   14.68
  -9  -4  14  218.35   28.02
   9  -4 -14  333.14   22.25
  -9   4  14  237.29   29.58
   9   4 -14  292.81   33.06
  -9  -4 -14  275.78   19.86
  -9   4 -14  262.86   36.07
   9  -4 -15   43.08    8.19
  -9   4 -15   32.26    7.64
  -9  -4 -15   50.00    7.84
   9  -4 -16    4.71    4.85
  -9   4 -16    6.23    5.70
  -9  -4 -16    9.30    5.05
   9  -4 -17   42.34    6.72
  -9   4 -17   40.12    7.84
  -9   4 -18   70.76    8.77
   9  -4 -18   58.28    6.71
  -9   4 -19   96.24    9.63
  -9   4 -20    3.77    3.70
  -9   4 -21   43.62    5.11
 -10  -4   0   77.38   13.14
 -10   4   0   78.25   11.34
 -10  -4   0  102.92   16.51
 -10   4   0   97.43   15.28
 -10  -4   0  113.67    9.37
 -10   4   0  111.44    8.98
 -10  -4   1    6.73    6.76
 -10  -4   1    2.85    7.43
 -10   4   1    6.49    6.78
 -10   4   1    8.08    5.55
 -10   4  -1    2.94    5.24
 -10  -4   1    9.00    3.70
 -10   4   1   12.51    3.59
 -10  -4  -1    5.72    7.30
 -10   4  -1   10.38    7.68
 -10  -4  -1   14.17    3.84
 -10   4  -1   15.82    3.86
 -10  -4   2  422.51   35.27
 -10   4  -2  424.45   34.47
 -10   4   2  476.57   35.55
 -10  -4  -2  501.36   37.37
 -10   4   2  358.44   26.70
 -10   4  -2  395.83   28.46
 -10  -4   2  445.14   25.00
 -10   4   2  470.42   24.83
 -10  -4   2  336.97   29.96
 -10  -4  -2  336.66   29.76
 -10  -4  -3   33.75    9.67
 -10  -4   3   30.64   10.73
 -10   4   3   51.27   11.60
 -10   4  -3   43.32    8.41
 -10  -4  -3   48.33   11.65
 -10   4  -3   43.93   10.63
 -10  -4   3   43.31    6.19
 -10   4   3   56.02    6.27
 -10  -4   3   47.61   11.11
 -10  -4   4  810.16   53.34
 -10   4  -4  757.04   51.01
 -10   4  -4  756.32   43.90
 -10  -4  -4  722.95   51.39
 -10   4  -4  727.38   39.94
 -10   4   4  751.28   51.63
 -10  -4   4  645.95   46.20
 -10  -4  -4  644.40   45.45
 -10  -4   5   27.37    8.99
 -10  -4  -5   17.21    8.31
 -10   4   5   17.21    8.39
 -10   4  -5   29.62    6.90
 -10  -4  -5   10.43    7.84
 -10   4  -5   32.54   10.17
 -10   4  -5   19.40    4.51
 -10  -4   5   34.80   11.07
 -10   4  -6  131.00   12.80
 -10   4  -6  120.44   17.07
 -10   4   6  160.43   20.21
 -10  -4  -6   76.93   12.77
 -10  -4  -6  115.20   18.05
 -10   4  -6  107.28   10.10
 -10  -4   6  106.92   17.65
 -10  -4   6  104.79   13.89
  10   4   6  111.39   15.92
 -10  -4  -7  220.11   24.81
 -10   4  -7  167.12   21.57
 -10   4  -7  180.92   14.30
 -10   4   7  170.75   22.20
 -10  -4  -7  199.89   14.71
 -10  -4   7  209.91   18.23
 -10  -4  -7  169.25   17.51
 -10  -4   7  184.34   23.52
 -10   4   8  100.85   17.53
 -10  -4   8   82.05   16.20
 -10   4  -8  107.63   10.45
 -10  -4  -8   97.32   10.71
 -10  -4  -8  122.52   10.69
 -10  -4   8  115.61   12.61
 -10  -4  -8   86.73   11.88
 -10  -4  -9   44.02    7.84
 -10   4   9   41.60   12.41
 -10  -4   9   32.21   12.03
 -10   4  -9   39.20    7.65
 -10  -4  -9   39.43    7.09
 -10  -4  -9   43.12   10.39
 -10   4  -9   38.12    6.66
 -10  -4  -9   31.95    6.24
 -10   4  -9   52.15   21.38
 -10  -4 -10  635.00   36.53
 -10   4 -10  619.44   37.65
 -10  -4 -10  701.24   42.62
 -10   4 -10  621.11   37.45
 -10  -4 -10  641.95   37.29
 -10   4 -10  752.48   69.13
 -10   4  10  659.04   50.71
 -10  -4  10  511.46   47.12
 -10   4 -11  230.15   16.91
 -10  -4  11  200.52   25.66
 -10  -4 -11  194.98   15.07
 -10   4  11  195.75   25.37
 -10  -4 -11  208.36   19.98
  10   4 -11  230.42   29.11
 -10   4 -11  205.40   16.55
 -10  -4 -11  223.79   16.53
 -10   4 -11  169.62   32.14
 -10   4  12  130.04   22.50
 -10  -4  12  155.10   23.75
  10   4 -12  244.60   29.57
 -10   4 -12  233.05   17.26
 -10  -4 -12  201.62   16.06
 -10   4 -12  228.67   35.88
 -10   4  13   34.30   11.84
 -10  -4  13   42.91   12.90
  10   4 -13   40.72   13.89
 -10   4 -13   46.19    8.05
 -10  -4 -13   56.99    8.26
  10  -4 -13   48.87    8.91
 -10   4 -13   39.84   17.92
  10  -4 -14   35.32    7.88
 -10  -4 -14   34.00    6.96
  10  -4 -15   64.59    9.40
 -10  -4 -15   68.35    8.58
  10  -4 -16   10.86    5.01
 -10   4 -16    7.02    5.48
 -10  -4 -16    7.76    4.97
  10  -4 -17    2.38    3.96
 -10   4 -17    9.42    5.18
  10  -4 -18  138.40   10.75
 -10   4 -18  181.32   13.46
 -10   4 -19   22.11    5.09
 -10   4 -20   12.87    3.79
 -11   4   0   27.81    7.61
 -11  -4   0   40.38   12.48
 -11   4   0   41.22   12.35
 -11  -4   0   45.33    6.38
 -11   4   0   49.11    6.54
 -11  -4   0   27.36    9.44
 -11  -4   1    4.86    7.84
 -11   4   1    4.25    5.43
 -11  -4   1    6.44    8.61
 -11   4  -1    3.84    6.02
 -11   4   1    5.89    8.22
 -11  -4  -1    1.61    9.18
 -11   4  -1   21.96   10.54
 -11  -4   1    9.34    3.89
 -11   4   1   13.39    4.24
 -11  -4  -1   10.60    4.15
 -11   4  -1   16.69    4.55
 -11  -4  -2  777.96   56.06
 -11  -4   2  780.06   56.24
 -11   4   2  890.50   56.93
 -11   4   2  713.30   45.67
 -11   4  -2  803.74   47.93
 -11  -4   2  858.22   43.80
 -11   4   2  794.04   43.04
 -11   4  -2  815.07   55.44
 -11  -4   2  765.16   50.26
 -11  -4  -2  679.38   48.71
 -11  -4  -3  662.25   49.97
 -11   4  -3  652.01   41.31
 -11  -4   3  625.80   49.36
 -11  -4   3  662.73   37.26
 -11   4   3  692.39   37.17
 -11   4  -3  630.52   48.23
 -11   4   3  620.23   48.14
 -11  -4   3  660.83   43.89
 -11  -4  -3  656.74   43.34
 -11   4  -4    6.52    5.22
 -11  -4   4   21.84    7.54
 -11  -4  -4   16.18    7.66
 -11  -4   4    8.19    7.47
 -11   4   4    6.17    7.24
 -11   4   4    9.28    4.23
 -11  -4  -4   -1.61    7.80
 -11   4  -4    2.94    7.30
 -11   4  -4    5.84    3.63
 -11  -4   4    6.16    3.89
 -11   4   5  410.86   36.73
 -11  -4  -5  452.29   38.85
 -11   4  -5  414.27   36.32
 -11   4  -5  461.57   29.58
 -11   4  -5  417.02   26.05
 -11  -4   5  443.38   31.45
 -11  -4  -5  390.68   30.28
 -11  -4   5  409.96   37.54
 -11  -4   6  630.29   50.44
 -11   4  -6  612.06   48.72
 -11   4  -6  696.08   41.21
 -11  -4  -6  621.74   50.10
 -11   4  -6  657.45   38.42
 -11   4   6  653.25   50.45
 -11  -4   6  722.18   43.09
 -11  -4  -6  714.14   43.09
 -11   4  -7  133.50   13.27
 -11  -4  -7  136.23   20.56
 -11  -4   7  113.35   19.25
 -11   4   7  139.94   20.20
 -11  -4  -7  115.41   12.39
 -11   4  -7  107.83   18.23
 -11   4  -7  127.08   11.58
 -11  -4   7  136.94   13.98
 -11  -4  -7   92.90   13.04
 -11  -4   8   -3.48   10.30
 -11  -4  -8   10.08    5.38
 -11  -4  -8    9.47    5.01
 -11   4   8    3.40    8.22
 -11   4  -8    8.78    4.41
 -11  -4   8   12.83    5.40
 -11   4  -9  142.12   13.40
 -11  -4   9  104.09   19.14
 -11   4   9   98.79   18.42
 -11  -4  -9  121.10   12.07
 -11   4  -9  133.43   12.54
 -11  -4  -9  144.34   12.94
 -11   4 -10  357.79   24.53
 -11  -4 -10  374.33   23.64
 -11   4  10  340.90   34.58
 -11   4 -10  380.76   24.58
 -11  -4  10  293.22   33.39
 -11   4 -10  344.55   46.44
 -11   4 -11  410.03   25.63
 -11  -4 -11  398.44   24.05
 -11   4  11  292.06   33.34
  11   4 -11  358.01   38.25
 -11   4 -11  394.60   25.74
 -11   4 -11  444.95   50.33
 -11  -4  11  286.60   33.29
 -11  -4 -12    1.86    3.73
 -11   4  12   -1.77    7.55
 -11  -4  12   -1.77    7.26
  11   4 -12    2.04    8.38
 -11   4 -12    4.63    5.26
 -11   4 -12    3.19   13.10
  11  -4 -13   16.81    6.92
 -11   4 -13   10.92    5.78
  11  -4 -14  109.01   11.90
 -11   4 -14   94.02   11.06
  11  -4 -15   47.67    8.22
  11  -4 -16    7.23    5.03
 -11   4 -17  116.22   10.72
  11  -4 -17   89.10    8.84
  11  -4 -18   46.37    5.07
 -11   4 -18   53.13    7.00
 -11   4 -19   19.46    4.49
 -11   4 -20    1.38    2.22
 -12  -4   0   40.24   10.82
 -12   4   0   55.55    9.88
 -12  -4   0   40.94   13.07
 -12   4   0   45.59   12.69
 -12  -4   0   57.92    7.31
 -12   4   0   60.02    7.29
 -12  -4   1   67.01   11.36
 -12   4   1   65.47   10.23
 -12   4  -1   45.73    9.20
 -12  -4   1   53.38   14.45
 -12   4   1   42.58   12.26
 -12  -4  -1   51.16   13.61
 -12   4  -1   36.98   11.48
 -12  -4  -1   63.15    7.61
 -12  -4   1   65.76    7.68
 -12   4   1   65.54    7.59
 -12   4   2   80.05   10.96
 -12  -4   2   90.12   13.59
 -12   4  -2  109.43   12.98
 -12  -4  -2   99.61   13.99
 -12  -4   2   74.23   16.29
 -12   4   2   91.85   16.54
 -12  -4  -2  125.91   19.87
 -12   4  -2   89.09   16.88
 -12  -4   2  105.18    9.83
 -12   4   2  113.34   10.11
 -12  -4   3   55.19   10.67
 -12  -4  -3   41.81    9.30
 -12  -4   3   40.94    6.50
 -12   4   3   36.74    6.24
 -12  -4   3   28.19   11.67
 -12   4   3   39.58   11.72
 -12   4  -3   43.03    9.05
 -12  -4  -3   38.48   13.04
 -12   4  -3   27.06   11.03
 -12  -4  -4  896.17   66.04
 -12   4  -4  918.64   64.90
 -12   4  -4  965.06   55.99
 -12   4  -4  925.46   52.21
 -12   4   4  905.68   65.30
 -12  -4   4  917.30   66.18
 -12  -4   4  942.99   52.16
 -12   4   4 1005.67   52.27
 -12  -4   4 1057.51   58.19
 -12  -4  -4  994.71   57.26
 -12  -4   5   34.62    6.23
 -12  -4   5   49.06    9.05
 -12   4   5   34.09   12.44
 -12   4  -5   32.03    8.24
 -12  -4  -5   40.76   11.76
 -12   4  -5   40.31   11.92
 -12   4   5   48.86    7.05
 -12   4  -5   46.16    6.90
 -12  -4  -5   68.60   10.47
 -12  -4   5   30.29   10.92
 -12   4   6   26.65    5.57
 -12  -4   6   39.62    8.66
 -12  -4   6   43.06   13.16
 -12   4   6   39.83   12.08
 -12   4  -6   35.67    8.14
 -12  -4   6   41.83    6.57
 -12  -4  -6   29.62    7.54
 -12  -4  -6   14.16   10.38
 -12   4  -6   33.97   12.44
 -12  -4  -6   21.38    7.19
 -12   4  -6   32.55    6.08
 -12  -4  -7   22.68    6.18
 -12   4   7   -8.77   10.94
 -12   4  -7    5.94    5.78
 -12  -4  -7   11.37    6.06
 -12  -4  -7    1.78    7.58
 -12   4  -7    1.63    8.29
 -12   4  -7   11.35    5.06
 -12  -4   7   -5.41    9.19
 -12  -4   7   18.05    5.89
 -12   4   8    3.55    9.47
 -12  -4   8    4.85    5.03
 -12  -4   8   -7.26    9.46
 -12  -4  -8    9.56    5.66
 -12   4  -8   11.24    4.69
 -12  -4  -8   15.99    6.41
 -12  -4   9   38.14   12.60
 -12   4   9   35.69   12.88
 -12  -4  -9   49.95    7.99
 -12   4  -9   52.67    8.05
 -12   4  -9   40.61   18.20
 -12   4 -10  229.28   17.41
 -12   4  10  184.02   24.68
 -12  -4 -10  206.33   15.78
 -12   4 -10  219.00   17.00
 -12  -4  10  155.39   23.43
 -12   4 -10  229.90   36.56
 -12   4 -11   16.70    5.79
 -12  -4 -11   15.90    4.72
 -12   4 -11    9.65    5.64
 -12   4 -11   -3.22   11.62
 -12  -4 -12   90.48    8.91
 -12   4 -12   94.89   10.68
  12  -4 -13   28.22    7.62
 -12   4 -13   18.64    6.11
 -12   4 -14   51.10    8.19
  12  -4 -14   41.41    7.92
  12  -4 -15    4.44    4.86
 -12   4 -15   -0.98    4.67
  12  -4 -16   10.78    4.50
  12  -4 -17   14.85    3.85
 -12   4 -19    3.77    2.72
 -13  -4   0    4.11    6.75
 -13   4   0    2.09    6.20
 -13  -4   0   -5.70   10.14
 -13   4   0   -1.74    9.31
 -13  -4   0    2.86    4.67
 -13   4   0   -0.44    4.64
 -13  -4   1   20.60    8.23
 -13   4   1   15.69    5.77
 -13   4  -1    5.80    6.34
 -13  -4   1   15.22   10.61
 -13   4   1    8.82    9.63
 -13  -4  -1    1.88    9.56
 -13   4  -1   -5.15   10.34
 -13  -4   1   10.57    4.90
 -13   4   1    5.79    4.46
 -13  -4  -2  197.53   26.37
 -13   4   2  174.00   16.19
 -13   4  -2  238.74   19.20
 -13   4   2  145.36   23.18
 -13  -4   2  200.67   26.47
 -13  -4   2  229.34   19.55
 -13  -4  -2  235.94   19.65
 -13  -4   2  234.00   16.36
 -13   4   2  217.09   15.66
 -13   4  -2  168.45   24.04
 -13  -4   3  667.72   55.84
 -13   4   3  718.79   56.13
 -13   4  -3  794.15   46.24
 -13  -4  -3  686.09   56.21
 -13  -4   3  729.65   42.55
 -13   4   3  766.80   42.47
 -13  -4   3  891.94   48.02
 -13  -4  -3  786.94   46.65
 -13   4  -3  638.01   53.40
 -13  -4  -4   27.07    7.62
 -13  -4   4   12.07    5.09
 -13   4   4   10.62    5.01
 -13  -4   4   11.15    9.72
 -13   4   4    5.31    8.81
 -13   4  -4   17.99    7.45
 -13  -4  -4    9.35    8.80
 -13   4  -4   15.34    9.72
 -13   4  -4   16.72    4.75
 -13  -4   4   24.66    7.92
 -13   4  -5  145.54   21.13
 -13  -4  -5  150.26   22.57
 -13   4  -5  183.54   16.27
 -13  -4   5  139.35   21.80
 -13   4   5  142.88   21.75
 -13   4  -5  165.21   13.98
 -13  -4  -5  178.43   16.12
 -13  -4   5  187.26   14.00
 -13   4   5  177.83   13.68
 -13  -4   5  192.93   16.71
 -13  -4  -5  158.47   15.84
 -13   4   6  112.94   20.16
 -13   4  -6  134.90   13.78
 -13  -4  -6  126.21   13.21
 -13  -4   6  120.31   21.39
 -13   4  -6  109.28   19.78
 -13   4  -6  108.43   11.32
 -13  -4   6  148.85   12.02
 -13   4   6  136.20   11.52
 -13  -4   6  152.17   13.89
 -13  -4  -6  119.64   12.87
 -13   4  -6  105.44   26.40
 -13  -4  -6   60.84   17.08
 -13  -4   7   38.83    6.68
 -13  -4   7   31.39   12.59
 -13   4  -7   55.49    9.11
 -13  -4  -7   48.22    8.17
 -13  -4  -7   25.63   12.48
 -13   4  -7    1.67   11.74
 -13   4   7   39.58   13.88
 -13   4  -7   51.98    7.73
 -13   4   7   54.26    7.10
 -13   4  -7   46.04   17.66
 -13   4   8   -7.18    9.36
 -13  -4   8    0.45    4.50
 -13   4  -8    3.12    5.68
 -13  -4  -8    8.33    5.40
 -13   4   8    4.86    4.41
 -13   4  -8    5.92    4.94
 -13  -4   9   75.80   15.96
 -13   4   9   69.31   15.47
 -13   4  -9   97.58   10.51
 -13  -4  -9   94.47   10.34
 -13   4 -10   42.29    7.50
 -13  -4 -10   42.78    6.86
 -13   4 -10   35.63    7.19
 -13  -4 -11  165.33   13.22
 -13   4 -11  162.17   14.62
 -13   4 -11  192.48   14.97
  13  -4 -12   21.46    7.43
 -13  -4 -12   20.21    4.61
 -13   4 -12   21.23    6.41
  13  -4 -13   11.86    6.05
 -13   4 -13    8.13    4.99
  13  -4 -14   25.96    6.52
 -13   4 -14   38.49    6.88
  13  -4 -15    9.95    4.74
 -13   4 -15   20.02    5.60
  13  -4 -16   37.16    5.53
 -13   4 -16   32.72    5.96
  13  -4 -17   34.31    4.24
 -14   4   0   30.56    6.60
 -14  -4   0   -1.94   13.48
 -14   4   0    7.19   10.68
 -14  -4   0   29.79    8.08
 -14  -4   1  318.42   20.82
 -14   4   1  228.44   29.39
 -14  -4  -1  264.25   31.49
 -14   4  -1  242.01   29.85
 -14   4   1  324.30   21.98
 -14   4  -1  340.27   23.10
 -14   4   1  304.83   20.19
 -14  -4   1  276.88   22.69
 -14  -4   1  248.29   31.75
 -14  -4   2  273.02   32.32
 -14   4   2  275.70   31.54
 -14  -4  -2  242.24   30.97
 -14   4  -2  238.41   29.77
 -14   4   2  273.44   20.49
 -14   4  -2  309.30   22.72
 -14  -4   2  334.75   23.79
 -14  -4   2  321.95   20.92
 -14   4   2  319.93   20.51
 -14  -4   3  344.29   36.35
 -14   4   3  303.36   33.89
 -14  -4  -3  297.46   34.37
 -14   4  -3  376.57   25.84
 -14  -4   3  411.41   26.70
 -14  -4  -3  388.59   26.22
 -14  -4   3  360.58   23.56
 -14   4   3  350.73   23.11
 -14   4  -3  288.27   33.28
 -14  -4   4  640.78   53.59
 -14   4   4  579.37   51.38
 -14   4  -4  531.89   49.94
 -14   4  -4  702.65   42.01
 -14  -4   4  764.40   42.41
 -14  -4  -4  747.53   42.11
 -14  -4  -4  602.06   52.68
 -14  -4   4  676.61   39.25
 -14   4   4  707.22   39.26
 -14   4  -4  630.15   62.25
 -14   4  -5   91.82   11.69
 -14  -4  -5   95.42   11.39
 -14  -4   5   61.87   15.67
 -14   4   5  123.31   19.70
 -14  -4  -5   99.27   18.08
 -14   4  -5   75.31   15.91
 -14   4  -5   76.27    9.29
 -14  -4   5   94.52    9.79
 -14   4   5   87.83    9.48
 -14   4  -5   88.80   24.26
 -14  -4   6   15.95    5.20
 -14   4   6   13.28    4.79
 -14  -4   6   -1.85   10.53
 -14   4   6    7.18    9.38
 -14   4  -6   21.31    6.96
 -14  -4  -6   21.85    6.75
 -14  -4  -6    9.23    9.87
 -14   4  -6   -1.69    9.02
 -14   4  -6   16.02    5.10
 -14   4  -6   27.60   16.00
 -14  -4   7  347.74   36.84
 -14   4  -7  424.99   27.07
 -14  -4  -7  288.52   34.79
 -14  -4  -7  385.45   25.82
 -14   4  -7  387.38   25.34
 -14  -4   7  413.57   24.93
 -14   4   7  424.54   24.91
 -14   4   7  309.36   34.88
 -14   4  -7  387.28   45.99
 -14  -4   8   11.70    4.75
 -14   4   8   15.72    4.73
 -14  -4  -8   14.31    5.69
 -14   4  -8    9.86    4.88
 -14   4  -8   18.91    6.65
 -14  -4  -9   93.37    9.69
 -14   4  -9   75.22    9.24
 -14  -4   9   61.36    8.06
 -14   4   9   66.55    8.43
 -14  -4 -10  236.01   16.52
 -14   4 -10  217.71   16.91
 -14  -4  10  214.11   15.75
 -14   4  10  229.14   15.92
 -14   4  11  277.73   18.18
 -14  -4 -11  265.00   18.00
 -14   4 -11  274.09   19.46
 -14  -4  11  286.38   18.26
 -14  -4 -12  207.87   14.86
 -14   4 -12  250.35   17.37
 -14  -4  12  222.51   15.40
 -14   4  12  231.38   15.66
  14  -4 -12  270.93   19.07
  14  -4 -13   63.76    9.01
 -14   4 -13   70.43    8.45
 -14  -4  13   58.27    6.77
 -14   4  13   59.03    6.84
 -14  -4  14    5.00    3.09
  14  -4 -14    7.17    5.05
 -14   4 -14    5.32    4.47
 -14   4  14    1.06    2.78
  14  -4 -15  181.19   12.96
 -14   4 -15  163.74   12.63
  14  -4 -16   10.22    3.29
 -14   4 -16   16.09    4.22
 -14   4 -17    4.10    2.86
 -15  -4   0  145.35   13.87
 -15   4   0  143.24   13.08
 -15  -4   0  100.95   20.06
 -15   4   0  106.98   19.66
 -15   4   0  130.73   23.85
 -15   4   1  127.17   11.89
 -15   4  -1  126.45   12.43
 -15  -4  -1  140.15   13.15
 -15  -4   1  103.18   19.92
 -15   4   1  102.42   19.38
 -15  -4  -1  100.70   19.34
 -15   4  -1   81.41   18.13
 -15   4  -1  108.03   22.64
 -15  -4   2  278.89   19.01
 -15  -4   2  227.88   29.47
 -15   4   2  273.53   18.64
 -15   4   2  239.43   29.11
 -15  -4  -2  233.15   29.07
 -15   4   2  260.07   18.47
 -15   4  -2  281.53   20.43
 -15  -4  -2  286.80   20.89
 -15   4  -2  235.41   28.80
 -15   4  -2  267.96   35.36
 -15  -4   3  867.84   65.99
 -15   4   3  857.48   65.11
 -15   4  -3  764.49   62.51
 -15   4  -3  982.10   53.20
 -15  -4  -3  867.20   52.08
 -15  -4  -3  707.62   62.94
 -15   4  -3  875.76   73.26
 -15  -4   3 1010.36   51.42
 -15   4   3 1006.42   51.08
 -15   4   4   40.93    7.01
 -15   4  -4   50.02    8.89
 -15  -4   4   63.59    8.15
 -15   4  -5  529.07   32.09
 -15  -4  -5  494.87   31.44
 -15  -4   5  497.67   30.14
 -15   4   5  485.48   29.79
 -15   4  -6  332.49   22.58
 -15  -4   6  317.94   21.24
 -15  -4  -6  313.58   21.74
 -15   4  -6  278.20   20.24
 -15  -4   6  294.60   20.36
 -15   4   6  318.03   20.52
 -15   4  -7   78.00    9.99
 -15   4  -7   70.11    8.68
 -15  -4   7   87.52    9.22
 -15  -4   7   62.96    8.20
 -15   4   7   75.53    8.62
 -15  -4  -7   86.85    9.71
 -15   4  -8   78.78    9.94
 -15  -4  -8   82.93    9.49
 -15   4  -8   68.64    8.62
 -15  -4   8   72.29    8.20
 -15   4   8   68.14    7.88
 -15  -4  -9  116.46   10.77
 -15   4  -9  112.70   10.89
 -15  -4   9  106.67    9.74
 -15   4   9  121.28   10.28
 -15  -4 -10  215.46   14.81
 -15   4 -10  194.02   15.13
 -15  -4  10  186.70   14.17
 -15   4  10  209.20   14.44
 -15  -4 -11  603.41   34.86
 -15   4 -11  611.56   36.23
 -15  -4  11  656.54   35.13
 -15   4  11  664.51   35.16
  15  -4 -12   27.74    6.75
 -15  -4  12   25.44    4.59
 -15   4  12   25.79    4.63
 -15  -4 -12   24.75    4.22
 -15   4 -12   23.11    5.50
 -15  -4  13   33.30    4.80
 -15   4 -13   41.76    6.20
  15  -4 -14  159.00   11.96
 -15   4 -14  148.41   11.45
  15  -4 -15   12.38    3.37
 -15   4 -15    9.29    3.40
 -15   4 -16   -1.45    2.29
 -16   4   0   40.85    6.93
 -16  -4   0   47.74    8.36
 -16   4   1    3.08    3.97
 -16   4  -1    1.02    4.38
 -16  -4  -1    4.40    5.97
 -16  -4   1    2.17    5.38
 -16   4  -2  645.17   36.44
 -16  -4  -2  671.34   36.96
 -16  -4   2  660.32   36.76
 -16   4  -3   51.18    7.83
 -16  -4  -3   48.13    8.34
 -16  -4   3   33.74    7.20
 -16  -4   3   38.67    6.81
 -16  -4   4  813.81   47.53
 -16   4   4  896.79   47.81
 -16   4  -4  894.15   49.54
 -16  -4   4  904.82   48.97
 -16   4  -5   16.44    5.99
 -16  -4   5   22.05    5.85
 -16  -4   5   21.60    5.58
 -16   4   5   20.03    5.31
 -16   4  -6  242.84   18.18
 -16  -4  -6  230.02   17.76
 -16  -4   6  233.06   16.70
 -16  -4   6  258.20   17.06
 -16   4   6  240.48   16.74
 -16   4  -7   17.72    6.07
 -16  -4  -7   13.76    5.47
 -16  -4   7   18.12    4.54
 -16  -4   7    9.51    4.34
 -16   4   7   19.04    4.97
 -16   4  -7   13.88    4.47
 -16   4  -8   25.89    6.06
 -16  -4  -8   31.19    6.00
 -16  -4   8   23.86    4.80
 -16   4   8   22.34    5.07
 -16   4  -8   27.89    5.34
 -16   4  -9   11.51    5.30
 -16  -4  -9    7.18    4.42
 -16  -4   9   14.42    3.88
 -16   4   9   14.92    3.68
 -16   4  -9    9.88    4.25
 -16  -4 -10  557.07   29.86
 -16   4 -10  478.63   29.77
 -16  -4  10  509.07   29.18
 -16   4  10  551.32   29.45
 -16  -4 -11   33.20    4.89
 -16  -4  11   35.45    4.98
 -16   4  11   30.80    4.70
 -16   4 -11   35.94    5.45
 -16  -4 -12  185.91   11.50
 -16   4 -12  181.98   12.92
  16  -4 -13   19.30    4.55
 -16   4 -13   14.05    3.54
  16  -4 -14   15.87    3.61
 -17   4   0   34.99    5.91
 -17  -4   0   33.80    6.81
 -17   4   1   47.68    6.24
 -17  -4  -1   61.07    8.40
 -17  -4   1   60.38    7.95
 -17   4  -1   44.30    6.85
 -17   4  -2  506.82   29.53
 -17  -4  -2  462.36   29.55
 -17  -4   2  502.94   29.73
 -17   4  -3  577.98   34.52
 -17  -4  -3  609.60   35.16
 -17  -4   3  606.91   34.55
 -17   4  -4   82.39    9.20
 -17  -4   4   85.21    8.92
 -17   4  -5  270.33   18.27
 -17  -4   5  254.67   17.17
 -17   4  -6  237.82   16.18
 -17  -4   6  203.08   14.48
 -17  -4  -6  227.75   15.86
 -17  -4   6  200.56   14.29
 -17   4   6  229.13   14.77
 -17   4  -7    0.40    4.41
 -17  -4  -7    5.34    4.14
 -17  -4   7   -4.98    4.40
 -17   4   7   -4.85    4.59
 -17  -4   8   61.79    6.62
 -17   4   8   66.99    6.62
 -17  -4  -8   74.41    7.69
 -17   4   9  152.84   10.75
  17  -4  -9  155.92   12.98
 -17  -4  -9  177.91   11.71
 -17  -4   9  138.23   10.61
  17  -4 -10  169.50   13.86
 -17  -4 -10  201.43   12.57
 -17  -4 -11  194.65   11.91
  17  -4 -13   37.09    4.58
 -18  -4   0    3.05    3.90
 -18   4  -1  176.69   12.80
 -18  -4   1  199.01   13.76
 -18  -4  -1  178.79   13.69
 -18   4  -2  113.56    9.90
 -18  -4  -2  117.66   10.75
 -18  -4   2  131.04   10.41
 -18   4  -3  226.61   15.22
 -18  -4  -3  234.61   15.83
 -18  -4   3  210.70   14.89
 -18   4  -4  313.18   19.80
 -18  -4   4  311.84   19.17
 -18  -4  -4  328.17   20.18
 -18   4  -5  149.18   11.11
 -18  -4   5  123.85    9.70
 -18  -4  -6    2.61    3.69
 -18  -4  -7   72.41    7.20
  18  -4  -8    1.14    3.66
 -18  -4  -8    6.83    3.18
  18  -4  -9  116.83    9.95
 -18  -4  -9  125.62    8.86
  18  -4 -10  115.79    9.30
 -18  -4 -10  114.71    7.78
  18  -4 -11   24.65    4.04
 -19  -4   0    9.71    3.60
 -19  -4   1    9.32    3.34
 -19  -4  -1    9.60    3.78
  19  -4  -1    8.09    3.22
 -19  -4   2   11.76    3.34
 -19  -4  -2   10.47    3.89
  19  -4  -2    8.12    3.49
 -19  -4  -3  198.46   12.60
 -19  -4   3  175.01   11.51
  19  -4  -3  160.93   12.34
  19  -4  -4   24.87    4.94
 -19  -4  -4   32.44    4.87
 -19  -4   4   27.09    3.73
  19  -4  -5   62.06    6.75
  19  -4  -6    2.75    3.29
  19  -4  -7    0.57    3.10
 -19  -4  -7    1.25    2.43
  19  -4  -8    0.50    2.47
 -19  -4  -8    2.39    2.10
  19  -4  -9   17.63    3.23
 -20  -4   0   -0.56    2.13
 -20  -4   1   28.02    3.63
 -20  -4  -1   29.38    3.75
 -20  -4   2   19.97    2.75
 -20  -4  -2   20.57    3.31
 -20  -4  -3   17.97    3.11
 -20  -4  -4   85.01    6.42
 -20  -4  -6    2.65    1.74
   0   5   0    7.32    5.46
   0   5   1  197.56   17.10
   0   5  -1  157.31   11.75
   0   5   1  170.11   18.07
   0   5  -1  170.03   17.81
   0   5  -1  158.85   15.73
   0   5  -2   11.77    5.74
   0   5   2   11.93    6.89
   0   5  -2   10.00    3.57
   0   5  -3  661.95   38.53
   0   5  -3  640.74   41.14
   0   5  -4   55.45    8.45
   0   5  -4   64.67    9.51
   0   5  -5   75.76   10.35
   0   5  -5   64.90    9.56
   0   5  -6   35.39    7.62
   0   5  -6   35.91    7.91
   0   5  -7  496.25   35.84
   0   5  -7  521.79   33.80
   0   5  -8   85.36   13.32
   0   5  -8   71.53    9.78
   0   5  -9  383.75   26.71
   0   5  -9  397.28   32.28
   0  -5  -9  390.82   24.27
   0  -5 -10   -2.13    3.13
   0  -5 -10    1.34    3.53
   0   5 -10    1.40    6.58
   0  -5 -11  711.21   39.34
   0  -5 -11  668.72   36.97
   0   5 -11  663.41   50.08
   0   5 -12  129.93   10.55
   0  -5 -12  132.07   10.54
   0   5 -12  106.56   18.60
   0  -5 -12  139.74   12.07
   0  -5 -13  379.31   23.68
   0   5 -13  336.48   35.11
   0   5 -13  362.20   22.01
   0  -5 -13  331.00   21.63
   0  -5 -14   62.65    8.68
   0   5 -14   73.39    9.06
   0   5 -14   68.31    7.62
   0  -5 -14   65.79    7.56
   0   5 -14   64.23   16.47
   0   5 -15  141.21   12.56
   0   5 -15  125.63   11.11
   0  -5 -15  112.03   10.90
   0   5 -15  122.26   22.15
   0  -5 -15  126.31   11.90
   0   5 -16    2.56    4.58
   0  -5 -16    2.15    4.67
   0   5 -16    9.03    5.34
   0   5 -16    8.60    9.15
   0  -5 -16    2.38    3.68
   0  -5 -17    1.26    5.18
   0  -5 -17   14.47    4.60
   0   5 -17    7.89    5.45
   0   5 -17   -4.55    5.49
   0   5 -18   28.43    5.59
   0  -5 -18   26.01    5.58
   0   5 -18   44.20    7.71
   0  -5 -19   43.55    6.64
   0   5 -19   65.24    8.22
   0   5 -20   67.82    7.83
   0   5 -21  155.51   11.31
   0  -5 -23   -2.55    2.26
   1   5   0 2775.06  149.60
   1   5   0 2815.82  139.23
   1   5  -1  830.42   44.50
   1   5   1  834.36   52.70
   1   5  -1  867.88   53.12
   1   5   1  756.06   49.39
  -1   5  -2  128.96   12.98
   1   5  -2  102.26   10.18
  -1   5  -2  117.73   10.44
   1   5  -2  118.25   13.57
   1   5   2  120.75   15.17
   1   5   2  115.49   13.41
   1   5  -3   31.03    7.40
  -1   5  -3   33.60    7.00
   1   5  -3   22.68    5.30
  -1   5  -3   28.31    5.85
   1   5   3   37.29    8.20
   1   5  -4   27.69    7.12
  -1   5  -4   22.94    6.17
   1   5  -4   24.78    6.24
  -1   5  -4   25.39    6.36
  -1   5  -5  845.79   49.02
   1   5  -5  786.77   49.06
  -1   5  -5  914.99   50.43
   1   5  -5  769.36   49.73
  -1   5  -6   86.96   10.26
  -1   5  -6   99.99   12.11
   1   5  -6   71.16   10.99
   1   5  -6   71.27   10.71
   1   5  -7  132.35   15.55
   1   5  -7  106.76   13.39
   1   5  -8 1497.10   86.34
  -1   5  -8 1548.01   86.73
   1   5  -8 1446.22   82.42
  -1  -5  -9  928.37   50.01
   1  -5  -9  895.94   50.05
   1   5  -9 1015.26   60.93
  -1   5  -9  959.32   60.09
   1   5  -9  868.68   53.91
  -1  -5 -10  169.42   13.03
   1   5 -10  159.54   19.91
  -1   5 -10  189.09   21.20
   1  -5 -10  171.28   13.39
  -1  -5 -10  150.58   11.06
   1   5 -10  155.62   15.32
  -1  -5 -11   40.19    6.63
   1  -5 -11   34.26    6.24
  -1  -5 -11   37.64    4.98
   1   5 -11   28.33   10.88
  -1   5 -11   23.30    9.83
   1  -5 -12    6.14    4.24
  -1  -5 -12    3.81    4.23
  -1  -5 -12   -0.34    3.44
  -1   5 -12    1.39    3.33
   1   5 -12    3.48    7.91
  -1   5 -12    1.71    7.78
   1   5 -12    3.52    3.47
   1  -5 -12    0.35    3.53
   1  -5 -13  409.07   28.01
  -1  -5 -13  530.03   28.95
   1   5 -13  420.18   40.86
  -1   5 -13  557.83   29.19
   1   5 -13  406.34   26.44
  -1   5 -13  479.72   41.60
   1  -5 -13  419.24   26.61
  -1   5 -13  462.67   26.88
  -1  -5 -13  455.68   26.75
   1  -5 -14  391.22   24.73
  -1  -5 -14  415.36   24.61
  -1   5 -14  361.99   24.27
   1   5 -14  378.84   38.20
  -1   5 -14  408.53   38.64
   1   5 -14  368.66   23.17
   1  -5 -14  352.79   22.98
  -1   5 -14  360.44   22.94
  -1  -5 -14  356.08   22.81
  -1   5 -15   15.44    4.92
   1  -5 -15   16.88    5.55
  -1  -5 -15   14.02    5.12
  -1  -5 -15    4.57    5.03
   1  -5 -15   11.65    4.89
   1   5 -15   16.25    5.06
  -1   5 -15   24.25    6.23
   1   5 -15   17.02   11.63
   1   5 -15   24.25    6.30
  -1  -5 -16   65.47    8.00
   1  -5 -16   48.39    7.47
   1   5 -16   37.62    6.90
   1  -5 -16   38.73    7.10
   1   5 -16   63.94    8.67
  -1   5 -16   85.96    9.76
  -1  -5 -16   54.75    7.16
   1   5 -16   54.49   16.28
  -1   5 -16   56.64    7.04
  -1  -5 -17  129.21   10.76
  -1   5 -17  154.17   13.01
   1   5 -17  125.17   11.75
   1   5 -17  101.70   10.38
   1  -5 -17  104.56   10.43
  -1   5 -17  108.18   10.43
  -1  -5 -17  112.18   10.71
   1  -5 -17   90.31    9.91
  -1   5 -18  111.67   11.32
   1   5 -18  133.55   11.63
   1   5 -18   99.35    9.84
   1  -5 -18  101.47    9.81
  -1   5 -18  102.01    9.75
  -1  -5 -18  101.78    9.79
   1  -5 -19   34.23    5.97
  -1  -5 -19   44.54    6.31
  -1   5 -19   43.71    7.21
   1   5 -19   55.74    7.43
  -1   5 -20   43.72    6.55
   1   5 -20   34.73    5.88
  -1   5 -21   74.34    7.02
   1   5 -21   53.23    6.07
  -1   5 -22   44.74    4.68
  -1  -5 -23   -0.90    2.03
   1  -5 -23    2.14    2.06
   2   5   0 3418.96  171.97
   2   5   0 3404.09  181.23
  -2   5   0 3402.93  181.37
   2   5   0 3660.14  179.86
   2   5   1 1767.07   93.97
   2   5  -1 2006.27   96.98
   2   5   1 1858.28  104.64
  -2   5   1 2087.19  106.13
   2   5  -1 1921.39  105.27
  -2   5  -1 1863.93  104.92
   2   5   1 1859.85  102.48
   2   5  -2  180.50   14.95
   2   5   2  216.34   20.68
  -2   5   2  184.22   19.50
   2   5  -2  186.00   18.31
   2   5   2  218.77   19.18
   2   5  -3  187.68   15.34
   2   5  -3  174.66   17.14
   2   5   3  161.04   16.65
  -2   5   4 1130.33   63.46
   2   5  -4 1318.31   69.75
  -2   5  -4 1354.19   69.59
   2   5  -4 1353.82   72.57
   2   5   4 1338.78   72.25
   2   5  -5   20.07    6.64
  -2   5  -5   16.48    5.78
  -2   5  -6   83.27   11.76
   2   5  -6   76.54   11.72
   2   5  -7 1737.72   94.76
  -2   5  -7 1684.78   94.27
   2   5  -7 1618.38   92.84
   2   5  -8  558.93   39.87
  -2   5  -8  556.58   39.75
   2   5  -8  537.80   37.56
   2   5  -9   67.36   10.46
  -2  -5  -9   46.91    6.62
   2  -5  -9   61.91    7.75
   2   5  -9   46.58   11.13
  -2   5  -9   57.21   11.87
   2   5 -10   33.84    7.58
  -2  -5 -10   45.99    6.51
   2  -5 -10   39.74    6.18
   2   5 -10   31.76   11.27
  -2   5 -10   48.08   11.51
  -2  -5 -10   28.25    4.66
  -2  -5 -11   17.15    3.89
  -2  -5 -11   19.26    4.70
   2  -5 -11   19.98    5.16
   2   5 -11   22.38   10.00
  -2   5 -11   18.18    4.62
  -2   5 -11   20.28    8.92
  -2  -5 -12  344.20   21.48
   2  -5 -12  309.70   21.69
   2   5 -12  305.78   32.19
  -2   5 -12  317.70   20.96
  -2   5 -12  369.29   33.71
  -2   5 -12  304.28   19.66
  -2  -5 -12  313.88   19.62
  -2  -5 -13   47.86    6.59
   2  -5 -13   65.86    8.59
  -2  -5 -13   47.01    7.37
  -2   5 -13   49.29    6.94
  -2   5 -13   57.80    8.14
   2   5 -13   55.46   15.28
   2  -5 -14   70.95    9.31
  -2   5 -14   79.93    9.12
   2   5 -14   57.34   16.28
  -2   5 -14   65.85    7.54
  -2  -5 -14   66.13    7.43
  -2  -5 -14   72.16    8.55
   2   5 -14   56.94    7.80
   2  -5 -14   52.50    7.72
  -2  -5 -15  458.98   27.65
   2  -5 -15  482.83   28.80
  -2   5 -15  482.28   29.27
   2   5 -15  426.26   43.01
   2   5 -15  451.34   27.96
   2   5 -15  413.07   26.87
   2  -5 -15  436.97   27.21
  -2   5 -15  424.58   26.82
  -2  -5 -15  450.25   26.99
  -2  -5 -16   80.75    8.74
   2  -5 -16   70.34    8.59
   2  -5 -16   92.17    9.85
  -2   5 -16   90.27   10.60
   2   5 -16   82.81    9.40
   2   5 -16   83.38    9.01
   2   5 -16   89.51   19.14
  -2   5 -16   72.01    8.43
  -2  -5 -16   69.27    8.21
   2   5 -17   30.69    6.65
   2  -5 -17   62.53    7.83
  -2   5 -17   40.63    6.90
  -2  -5 -17   41.48    7.00
  -2   5 -17   69.27    9.29
   2  -5 -17   33.82    7.02
   2   5 -17   55.17    7.89
   2  -5 -18    9.98    4.58
   2  -5 -18   16.58    4.56
   2   5 -18    7.33    4.54
  -2   5 -18    7.95    4.26
  -2  -5 -18   12.32    4.71
  -2   5 -18   23.70    6.20
   2   5 -18   16.00    5.52
   2  -5 -19    0.35    3.93
  -2  -5 -19   -1.02    3.93
  -2   5 -19    4.90    4.90
   2   5 -19    7.65    4.25
  -2   5 -20   94.21    8.71
   2   5 -20   53.25    6.73
  -2   5 -21   48.50    5.96
   2   5 -21   36.97    4.67
  -2   5 -22    8.11    2.87
  -2  -5 -23    8.41    2.24
   2  -5 -23    9.51    2.21
   3   5   0  576.28   38.89
  -3   5   0  550.70   38.45
   3   5   0  499.14   36.67
   3   5   1  238.54   21.29
  -3   5   1  188.90   19.55
   3   5  -1  166.29   18.74
  -3   5  -1  214.20   20.47
   3   5   1  216.33   19.51
   3   5   2  426.13   34.03
  -3   5   2  469.62   34.70
   3   5   2  485.12   33.63
  -3   5   3  235.64   15.11
   3   5   3  310.93   23.14
   3   5  -4 1901.08   95.60
  -3   5   4 1678.88   89.27
   3   5   4 1741.36   96.26
   3   5  -5  161.83   15.77
   3   5   5  101.68   13.38
   3   5  -6 2008.74  109.98
   3   5  -7   28.43    8.37
   3   5  -8   87.61   14.74
   3  -5  -9   87.65    9.52
  -3  -5  -9  107.11    9.60
   3   5  -9   75.56   14.05
   3   5 -10   26.90    7.55
  -3  -5 -10   23.84    5.08
   3  -5 -10   36.42    6.33
  -3  -5 -10   23.63    4.05
   3   5 -10   26.84    9.97
   3   5 -11    8.91    5.31
   3  -5 -11    9.72    4.46
  -3  -5 -11   12.05    3.38
   3   5 -11   21.33   10.24
  -3  -5 -11    9.75    4.22
   3  -5 -12  150.79   13.37
  -3  -5 -12  170.06   12.89
  -3   5 -12  140.82   12.25
  -3   5 -12  139.35   11.03
  -3  -5 -12  140.59   11.01
   3  -5 -13   65.00    8.99
  -3  -5 -13   40.35    6.85
  -3   5 -13   53.24    6.76
  -3  -5 -13   47.08    6.49
   3   5 -13   46.47   14.65
  -3   5 -13   53.46    7.94
  -3  -5 -14  574.93   34.12
   3  -5 -14  628.91   35.96
  -3   5 -14  619.23   35.72
   3   5 -14  565.30   49.89
  -3   5 -14  573.53   33.35
  -3  -5 -14  547.47   33.07
   3  -5 -15   45.92    7.67
  -3   5 -15   16.24    5.50
  -3  -5 -15   22.63    5.71
   3   5 -15   32.29   14.12
  -3   5 -15   24.79    6.97
   3  -5 -15   18.31    5.47
   3  -5 -16   -3.15    4.94
  -3   5 -16    3.34    4.48
  -3  -5 -16    0.83    4.51
   3  -5 -16    8.60    4.86
  -3   5 -16    2.41    5.36
   3   5 -16    2.18   10.54
   3   5 -16   14.88    5.29
   3   5 -16   -3.05    4.65
   3   5 -17    9.19    5.32
   3  -5 -17   35.08    6.48
  -3   5 -17   16.08    5.46
  -3  -5 -17   15.34    5.44
  -3   5 -17   35.27    7.58
   3   5 -17   18.04    5.72
   3  -5 -17    8.66    5.14
   3  -5 -18   22.19    5.76
  -3  -5 -18   26.63    5.85
  -3   5 -18   41.80    7.53
   3   5 -18   50.05    7.09
   3  -5 -18   51.68    6.57
  -3  -5 -19   20.20    4.76
  -3   5 -19   30.39    6.66
   3   5 -19   37.37    5.95
  -3  -5 -19   27.47    6.24
  -3   5 -20    8.34    4.64
   3   5 -20    5.19    3.33
  -3   5 -21   11.08    3.78
  -3   5 -22   74.81    6.39
  -3  -5 -23    1.40    1.64
  -4   5   0 3333.71  172.00
   4   5   0 3838.22  184.70
  -4   5   0 3974.33  185.05
  -4   5   1  208.01   14.34
  -4   5  -1  224.95   14.30
  -4   5   1  254.63   22.55
   4   5  -1  241.49   22.16
  -4   5  -1  260.66   22.82
  -4   5   2  509.01   30.76
   4   5   2  628.18   41.23
  -4   5   2  611.80   40.49
   4   5   2  603.68   39.20
  -4   5   3  140.21   16.82
  -4   5   3  121.26   10.71
   4   5   3  155.43   16.10
   4   5   3  141.59   17.40
  -4  -5   4 2338.47  125.86
  -4   5   4 2471.75  125.47
   4   5   4 2667.52  132.90
   4   5   5   78.43   11.65
  -4  -5   5   58.84    8.77
  -4   5   5   82.01    9.63
   4   5   6  233.01   22.12
   4   5  -6  286.25   24.24
   4   5  -7  914.38   58.57
   4   5  -8 1723.44   95.79
  -4   5  -8 1609.35   82.88
  -4  -5  -8 1607.11   83.77
   4  -5  -9   17.25    5.45
  -4  -5  -9   18.06    3.76
  -4  -5  -9   29.30    5.05
   4   5  -9   17.09    8.63
  -4   5  -9   21.96    4.65
   4   5 -10  205.96   24.36
  -4  -5 -10  219.41   15.56
  -4   5 -10  202.19   15.04
   4  -5 -10  226.92   16.93
  -4  -5 -10  208.29   13.96
  -4  -5 -11   82.83    9.00
   4  -5 -11   96.22   10.45
   4   5 -11   81.43   16.48
  -4  -5 -11   89.20    8.24
  -4  -5 -12  606.67   35.74
   4   5 -12  589.72   49.05
   4  -5 -12  660.27   37.90
  -4   5 -12  617.70   34.75
  -4  -5 -12  603.79   34.51
  -4   5 -12  667.82   55.33
   4  -5 -13   17.70    6.40
  -4   5 -13   32.48    5.23
  -4  -5 -13   24.21    4.96
   4   5 -13   23.62   11.48
  -4   5 -13   27.01    6.08
  -4  -5 -13   18.72    5.58
   4  -5 -14  393.07   24.95
  -4   5 -14  364.23   24.11
   4   5 -14  300.87   35.48
  -4   5 -14  344.12   22.06
  -4  -5 -14  325.96   21.73
   4  -5 -15  420.66   27.44
  -4   5 -15  459.32   28.00
   4   5 -15  341.67   39.05
  -4   5 -15  418.79   25.44
  -4  -5 -15  394.20   25.09
   4  -5 -16  336.19   22.50
  -4   5 -16  388.83   23.99
   4   5 -16  303.80   35.96
   4   5 -16  320.10   21.31
   4  -5 -16  285.42   20.83
  -4   5 -16  328.44   21.00
  -4  -5 -16  316.82   20.79
   4  -5 -17   91.03    9.69
  -4   5 -17   91.19   10.58
   4   5 -17   87.75    9.21
   4   5 -17   66.75    8.52
   4  -5 -17   70.34    8.87
  -4  -5 -17   94.97   10.35
  -4   5 -17   71.55    8.64
  -4  -5 -17   72.74    8.62
  -4   5 -18  119.68   12.15
   4   5 -18  152.24   11.42
   4  -5 -18  103.29   10.35
  -4  -5 -18  124.27   11.86
  -4  -5 -18  109.98   10.17
   4  -5 -18  128.45   11.00
  -4   5 -19    9.22    5.40
   4   5 -19    9.98    4.08
  -4  -5 -19    7.76    4.92
  -4   5 -20   79.37    8.64
   4   5 -20   65.04    6.42
  -4   5 -21   70.71    7.37
  -4   5 -22   32.80    4.17
  -5   5   0 1025.69   57.97
   5   5   0 1207.99   67.36
  -5   5   0 1142.17   66.63
  -5   5   1 2057.31  109.08
   5   5   1 2332.35  119.13
  -5   5   1 2256.80  118.24
  -5   5  -1 2093.22  109.06
   5   5   2    3.43    5.53
  -5   5   2    5.63    6.14
  -5  -5   2    1.67    2.91
  -5   5   2    6.33    3.04
  -5  -5  -2    3.14    2.98
  -5   5  -2    3.78    3.18
  -5  -5   3 2110.86  117.22
  -5  -5  -3 2153.69  116.72
  -5   5   3 2273.10  116.94
   5   5   3 2586.22  127.15
  -5   5   3 2537.88  126.63
   5   5   3 2307.89  123.73
   5   5   4   58.60   10.92
   5   5   4   73.51   12.86
  -5   5   4   67.68    8.79
  -5  -5   4   82.20   10.15
  -5  -5   5 2367.66  129.48
  -5   5   5 2518.04  129.15
   5   5   5 2545.31  133.32
   5   5   6   16.29    6.28
  -5   5   6   15.72    5.45
  -5  -5   6   11.65    5.14
   5   5   7  816.79   51.50
   5  -5  -7  848.73   46.05
  -5  -5  -7  840.13   44.38
  -5   5  -7  720.81   42.86
  -5  -5  -8  637.43   36.23
   5   5  -8  595.45   45.78
  -5   5  -8  647.92   35.62
  -5  -5  -9 1788.54   90.44
   5   5  -9 1775.80  103.82
  -5   5  -9 1800.30   90.05
  -5  -5  -9 1681.43   88.29
  -5  -5 -10  245.42   17.37
   5  -5 -10  276.77   19.62
   5   5 -10  275.00   28.65
  -5   5 -10  248.59   17.24
  -5  -5 -10  234.16   15.80
   5  -5 -11  541.44   31.78
   5   5 -11  482.18   41.94
  -5   5 -11  463.50   29.17
  -5   5 -11  497.04   28.05
  -5  -5 -11  454.29   27.53
  -5   5 -12   26.99    5.57
  -5  -5 -12   26.89    5.45
   5   5 -12   32.07   12.77
   5  -5 -12   39.26    8.18
  -5   5 -12   27.39   14.79
   5  -5 -13 1161.61   58.92
   5   5 -13 1114.72   73.92
  -5   5 -13 1006.78   54.92
  -5   5 -13 1136.88   79.21
  -5  -5 -13  947.24   54.50
   5  -5 -14  448.56   29.35
  -5   5 -14  509.20   29.64
   5   5 -14  382.16   41.39
  -5   5 -14  454.36   27.10
  -5  -5 -14  413.66   26.58
   5  -5 -15  395.41   26.08
  -5   5 -15  388.87   25.93
   5   5 -15  341.98   38.28
  -5  -5 -15  426.09   25.78
  -5   5 -15  359.53   23.53
  -5  -5 -15  372.64   23.68
   5  -5 -16   22.60    6.36
  -5   5 -16    8.48    4.83
  -5  -5 -16    1.60    4.78
  -5   5 -16   15.99    6.52
   5   5 -16   18.49    5.33
  -5  -5 -16   13.37    6.11
   5  -5 -17  487.68   27.32
  -5   5 -17  439.54   27.71
   5   5 -17  439.38   25.92
   5   5 -17  396.32   25.39
   5  -5 -17  388.86   25.59
  -5  -5 -17  457.35   27.34
  -5   5 -17  410.46   25.27
  -5  -5 -17  389.92   25.05
   5  -5 -18   58.06    7.39
   5  -5 -18   74.68    8.07
   5   5 -18   66.40    7.52
  -5   5 -18   63.89    8.97
  -5  -5 -18   71.46    8.77
  -5   5 -19   75.64    9.12
   5   5 -19   88.17    7.95
  -5  -5 -19   80.26    9.11
  -5   5 -20   14.44    4.98
  -5   5 -21  132.69   10.40
  -5   5 -22   70.66    5.98
  -6  -5   0  900.62   54.17
  -6   5   0  999.48   54.04
  -6   5   1  415.65   26.80
  -6  -5  -1  357.09   26.46
  -6   5  -1  399.93   26.49
  -6  -5   1  358.21   26.60
   6   5   1  486.78   33.24
  -6   5   1  437.85   32.03
  -6  -5   2  757.42   48.21
  -6   5   2  818.02   47.86
   6   5   2  891.72   54.56
  -6   5   2  869.87   53.89
  -6   5  -2  841.41   47.96
  -6  -5  -2  813.84   48.39
  -6  -5   3  280.02   22.96
  -6  -5  -3  278.09   22.46
  -6   5  -3  302.68   22.51
   6   5   3  354.99   28.67
  -6   5   3  372.83   28.68
   6   5   3  336.36   27.76
  -6   5   3  302.81   22.60
  -6  -5  -4 1470.53   88.04
  -6   5   4 1687.16   89.13
  -6  -5   4 1602.96   89.64
   6   5   4 1726.96   96.19
  -6   5   4 1760.02   95.59
   6   5   4 1670.34   93.80
   6   5   5   12.24    6.10
  -6  -5   5   11.83    5.51
  -6   5   5   10.75    5.19
  -6   5  -5   14.56    4.26
  -6   5   6  636.81   40.86
  -6   5  -6  590.62   34.86
  -6  -5   6  594.67   41.02
   6   5   6  623.27   42.32
  -6  -5   7  176.86   20.18
  -6   5  -7  215.24   14.96
  -6  -5  -7  233.46   15.18
  -6   5   7  218.54   21.16
   6   5   7  230.09   21.47
   6  -5  -8  535.98   33.58
  -6   5  -8  518.02   30.71
  -6  -5  -8  530.73   30.82
  -6  -5  -8  518.32   33.52
   6   5  -9  178.41   23.31
  -6   5  -9  219.01   15.20
  -6  -5  -9  197.39   14.61
   6  -5 -10  399.67   27.34
   6   5 -10  460.72   38.81
  -6   5 -10  391.77   25.13
  -6  -5 -10  405.09   25.12
   6  -5 -11  670.19   39.80
   6   5 -11  684.64   52.58
  -6   5 -11  614.94   37.37
  -6  -5 -11  678.35   37.60
  -6   5 -11  623.13   35.91
   6  -5 -12  489.33   30.47
   6   5 -12  550.66   44.18
  -6  -5 -12  431.65   27.51
  -6   5 -12  580.34   52.93
  -6   5 -12  425.42   26.38
  -6  -5 -12  423.30   26.15
   6  -5 -13  304.03   22.45
   6   5 -13  245.26   31.15
  -6  -5 -13  312.35   20.86
  -6   5 -13  277.95   36.16
  -6   5 -13  307.66   19.68
  -6  -5 -13  282.62   19.24
   6   5 -14  232.04   29.28
   6  -5 -14  249.38   19.20
  -6  -5 -14  217.39   17.19
  -6   5 -14  225.04   16.13
   6  -5 -15   57.82    9.33
   6   5 -15   44.34   15.41
  -6   5 -15   51.72    8.50
  -6  -5 -15   52.98    8.10
   6  -5 -16  277.46   20.53
  -6   5 -16  284.56   20.86
  -6  -5 -16  298.50   20.56
   6  -5 -17    8.80    5.02
  -6   5 -17    5.56    5.38
   6   5 -17   15.05    4.62
  -6  -5 -17   10.50    5.32
   6  -5 -17    1.20    4.89
   6  -5 -18   34.26    5.89
   6  -5 -18   38.09    6.00
  -6   5 -18   31.84    6.85
   6   5 -18   33.90    5.31
  -6  -5 -18   34.58    6.76
  -6   5 -19   56.13    8.05
  -6  -5 -19   65.94    7.68
  -6   5 -20   86.23    8.82
  -6   5 -21  122.25    9.67
  -7   5   0 1593.93   85.80
  -7  -5   0 1533.68   86.45
   7   5   1   34.75    8.77
  -7  -5   1   33.71    7.17
  -7   5   1   20.90    6.08
  -7  -5  -1   33.52    7.28
  -7   5  -1   27.70    6.69
  -7   5   1   32.86    8.39
  -7   5   2  324.37   25.35
  -7  -5  -2  339.98   26.20
  -7   5  -2  351.54   25.66
  -7  -5   2  323.90   26.16
   7   5   2  382.60   29.62
  -7   5   2  368.94   28.87
  -7  -5   3  163.59   17.44
  -7  -5  -3  186.31   17.87
  -7   5  -3  198.30   17.61
  -7   5   3  189.05   19.77
  -7   5   3  181.11   17.39
   7   5   3  199.58   20.68
  -7   5   4  149.46   16.14
  -7   5  -4  162.39   13.27
  -7  -5  -4  141.41   16.03
  -7   5  -4  143.92   15.68
  -7  -5   4  146.73   16.81
   7   5   4  156.98   18.78
  -7   5   4  174.32   19.17
   7   5   4  191.19   20.38
  -7  -5   4  160.90   14.46
  -7  -5  -4  155.53   14.06
   7   5   5   44.23   10.34
   7   5   5   28.80    8.77
  -7   5   5   21.49    7.97
  -7  -5   5   34.68    8.62
  -7   5   5   28.79    7.50
  -7   5  -5   19.33    5.41
  -7  -5   5   28.35    7.12
  -7  -5  -5   29.81    6.72
  -7  -5  -5   10.68    6.07
   7   5   6    8.25    5.37
  -7  -5   6    2.24    6.50
  -7   5   6   -1.04    7.09
  -7   5  -6    9.23    4.30
  -7  -5   6    2.72    4.96
  -7  -5  -6    2.56    4.62
   7   5   6   17.49    8.30
  -7   5  -6    7.13    3.43
  -7  -5  -6    6.66    3.02
  -7   5   6    9.35    6.27
   7   5   7   37.54    8.91
  -7   5   7   47.67   10.29
  -7  -5   7   44.58   10.27
  -7  -5   7   35.75    8.30
  -7  -5  -7   47.66    8.60
  -7   5  -7   33.28    5.83
  -7  -5  -7   51.00    6.27
   7   5   8  527.53   37.78
   7   5  -8  581.54   44.26
  -7   5  -8  545.99   30.76
  -7  -5  -8  515.80   30.41
  -7   5   8  562.67   40.08
  -7  -5   8  478.77   38.89
  -7  -5  -8  462.06   34.04
  -7   5   9   -4.04    8.12
  -7  -5   9    1.39    8.51
   7   5  -9   13.87   10.25
  -7   5  -9    9.50    4.35
  -7  -5  -9    9.72    4.03
   7   5 -10  469.93   40.59
  -7   5 -10  388.89   26.22
  -7  -5 -10  461.66   26.88
   7  -5 -11   78.50   10.78
  -7   5 -11   65.40    8.72
   7   5 -11   74.33   17.03
  -7  -5 -11   73.12    8.81
  -7   5 -11  112.85   25.03
   7  -5 -12    0.70    5.53
   7   5 -12   13.94   10.63
  -7   5 -12    3.81    4.91
  -7  -5 -12    7.72    4.72
  -7   5 -12   -5.77   16.07
   7  -5 -13   60.72    9.80
   7   5 -13   59.38   16.71
  -7  -5 -13   58.23    8.36
  -7   5 -13   48.98   16.91
   7  -5 -14   33.86    7.98
   7   5 -14   10.40    9.54
  -7  -5 -14   25.69    6.18
  -7   5 -15  105.33   11.82
   7  -5 -15  121.93   12.60
  -7  -5 -15  121.78   11.73
   7  -5 -16   75.46    9.96
  -7   5 -16   92.06   10.57
  -7  -5 -16   96.30   10.16
   7  -5 -17    4.75    4.63
  -7   5 -17   12.35    5.62
   7   5 -17    9.30    3.89
  -7  -5 -17   11.47    5.09
  -7   5 -18  137.08   11.93
  -7  -5 -18  128.44   11.04
  -7   5 -19   17.72    5.61
  -7  -5 -19   23.95    5.15
  -7   5 -20   28.79    5.27
  -7   5 -21    5.01    3.04
  -8  -5   0  483.36   35.18
  -8   5   0  484.67   34.16
  -8  -5   0  482.66   31.34
  -8   5  -1  239.90   21.32
  -8  -5   1  267.70   23.29
  -8   5  -1  225.80   18.11
  -8  -5  -1  224.45   21.68
  -8   5   1  263.22   22.37
  -8  -5   1  287.34   20.34
  -8  -5   2  159.67   18.46
  -8  -5  -2  197.65   19.29
  -8   5  -2  216.87   19.01
  -8   5  -2  179.32   15.16
  -8   5   2  200.84   18.83
  -8  -5   2  143.86   15.21
  -8  -5  -2  178.72   16.01
  -8  -5  -3  388.40   31.73
  -8   5  -3  448.38   32.23
  -8   5  -3  383.39   27.42
  -8  -5   3  409.27   32.74
  -8   5   3  468.46   32.81
   8   5   3  452.48   33.76
  -8   5   3  440.19   32.95
  -8  -5   3  456.71   30.06
  -8  -5  -3  461.65   29.64
  -8   5   4  170.03   19.05
  -8  -5   4  172.42   19.65
  -8   5   4  209.55   20.79
  -8  -5  -4  212.28   20.53
  -8   5  -4  189.22   19.10
  -8   5  -4  190.13   15.98
  -8  -5  -4  190.97   13.77
  -8  -5   4  204.62   18.15
  -8  -5  -4  176.71   16.93
   8   5   4  199.04   20.92
   8   5   4  249.67   24.59
   8   5   5   99.47   15.52
  -8   5  -5   93.76   10.70
  -8   5  -5   94.56   13.29
  -8  -5   5   75.73   13.00
  -8   5   5   92.58   13.39
  -8  -5   5   69.94   11.34
   8   5   5  105.72   15.06
  -8  -5  -5   67.80   12.12
  -8   5   5  100.07   14.18
  -8   5  -5   87.77    8.14
  -8  -5  -5   84.32    8.38
  -8  -5  -5   82.32   11.67
   8   5   6   38.59    9.94
  -8  -5   6   16.27    8.21
  -8   5   6   29.11    9.02
  -8   5  -6   26.33    6.61
  -8  -5   6   23.53    8.43
  -8  -5  -6   29.66    8.65
  -8   5  -6   38.48    5.60
  -8  -5  -6   41.56    5.80
   8   5   6   39.48   10.51
  -8   5   6   31.90    8.85
  -8  -5   7  578.63   44.67
  -8   5   7  689.25   46.06
  -8   5  -7  626.69   35.75
  -8  -5  -7  678.54   36.25
  -8  -5   7  588.20   40.92
  -8  -5  -7  539.94   40.04
   8   5   7  669.59   48.08
  -8   5   7  628.58   46.02
   8   5   7  691.44   45.72
  -8   5   8   74.27   13.89
  -8  -5   8  101.05   15.83
  -8  -5   8   84.36   13.00
  -8  -5  -8   75.66   12.68
  -8   5  -8  109.20    9.87
  -8  -5  -8  114.95    9.94
  -8   5   9  110.40   17.22
  -8  -5   9   94.74   16.56
  -8  -5  -9   89.70   13.50
  -8   5  -9  127.80   10.94
   8   5  -9   94.28   18.17
  -8  -5  -9  121.97   10.78
  -8   5  10   33.11   10.47
   8   5 -10   44.00   13.57
  -8   5 -10   36.84    6.76
  -8  -5 -10   50.11    7.22
   8  -5 -11   94.92   12.10
  -8   5  11   63.15   14.48
  -8   5 -11   82.76    9.34
   8   5 -11   90.80   18.68
  -8  -5 -11   83.86    9.41
  -8   5 -11   76.73   22.49
   8  -5 -12  157.40   15.37
  -8   5  12  140.70   20.71
  -8   5 -12  153.28   13.63
   8   5 -12  121.41   22.36
  -8  -5 -12  169.80   13.87
  -8   5 -12  120.85   26.76
   8  -5 -13    5.62    6.55
   8   5 -13    8.21    8.74
  -8   5 -13    4.48    4.95
  -8  -5 -13    5.33    5.33
  -8   5 -13    2.84   11.66
   8  -5 -14   31.25    7.89
   8   5 -14   28.72   12.17
  -8  -5 -14   17.99    5.76
   8  -5 -15  248.45   19.47
  -8  -5 -15  253.96   18.47
   8  -5 -16   27.57    6.67
  -8   5 -16   21.76    6.06
  -8  -5 -16   15.18    5.90
   8  -5 -17   48.13    7.52
  -8   5 -17   47.97    7.86
  -8  -5 -17   62.33    7.85
   8  -5 -18    3.37    3.56
  -8   5 -18    2.31    4.20
  -8  -5 -18   -3.21    3.85
  -8   5 -19   11.17    4.49
  -8  -5 -19    6.84    3.82
  -8   5 -20    7.37    3.70
  -8   5 -21   25.95    3.80
  -9   5   0   23.35    5.95
  -9  -5   0   29.31    8.31
  -9  -5   0   14.45    7.21
  -9   5   0   23.85    8.17
  -9   5   0   25.23    3.99
  -9   5   1   28.73    6.69
  -9   5  -1   27.78    7.21
  -9  -5   1   35.42    9.60
  -9   5   1   47.34    9.95
  -9  -5   1   37.13    8.54
  -9  -5  -1   50.66   10.71
  -9   5  -1   44.63    9.46
  -9   5   1   39.74    4.92
  -9   5  -2   35.06    7.48
  -9  -5   2   12.35    6.73
  -9   5   2   26.80    7.64
  -9  -5   2   40.94    9.56
  -9  -5  -2   24.49    7.78
  -9   5   2   31.23    4.42
  -9  -5  -2   37.70    9.58
  -9   5  -2   24.55    7.90
  -9  -5   3  205.22   22.33
  -9  -5  -3  199.25   21.60
  -9   5  -3  241.81   22.30
  -9   5  -3  227.97   18.63
  -9   5   3  207.60   21.39
  -9   5   3  233.61   14.34
  -9  -5   3  208.30   20.00
  -9  -5  -3  180.37   18.75
  -9   5   4  751.46   50.95
  -9  -5  -4  756.27   51.27
  -9   5  -4  743.49   45.44
  -9   5  -4  752.32   50.06
  -9   5  -4  746.15   41.29
  -9   5   4  782.95   40.88
  -9  -5   4  728.20   51.65
  -9  -5   4  792.25   48.81
  -9  -5  -4  759.68   47.71
   9   5   5  102.02   16.58
  -9   5  -5   85.51   11.02
  -9  -5   5   71.52   13.79
  -9   5   5   92.13   14.50
  -9  -5   5   74.66   12.67
  -9  -5  -5   75.54   12.33
  -9  -5  -5   77.79   13.67
  -9   5  -5   93.67   13.90
  -9   5  -5   79.93    8.04
  -9   5  -6  396.29   26.00
  -9  -5   6  358.00   32.35
  -9   5  -6  343.22   22.34
  -9   5   6  371.08   31.82
  -9  -5  -6  385.81   23.26
  -9  -5   6  337.77   28.38
  -9  -5  -6  315.50   27.56
   9   5   6  423.43   34.10
  -9   5  -7  105.29   11.54
  -9  -5   7   68.93   14.17
  -9   5   7   84.51   14.55
  -9  -5  -7   66.27   12.27
  -9   5  -7  102.61    9.67
  -9  -5  -7  104.88    9.84
  -9  -5   7   63.49   12.02
   9   5   7  117.13   16.41
  -9  -5   8   -3.35    7.80
  -9  -5  -8    0.90    7.75
  -9  -5   8    1.48    6.96
  -9   5   8    2.84    6.68
  -9   5  -8   11.46    4.34
  -9  -5  -8   10.90    4.36
  -9  -5  -9  255.24   18.38
   9   5  -9  199.35   27.65
  -9   5  -9  273.40   18.35
  -9  -5  -9  268.42   18.28
  -9   5   9  266.01   27.23
  -9  -5  -9  201.99   20.29
  -9  -5 -10   13.95    4.85
   9   5 -10   31.86   12.44
  -9   5 -10   23.08    5.98
  -9  -5 -10   27.12    6.05
   9  -5 -11   18.96    7.17
  -9   5  11   11.13    7.51
   9   5 -11   18.20   10.83
  -9   5 -11   21.41    6.03
  -9  -5 -11   18.88    5.47
  -9   5 -11   13.13   12.97
   9  -5 -12  254.14   20.33
   9   5 -12  203.87   27.91
  -9   5 -12  223.25   17.74
  -9  -5 -12  242.39   17.84
  -9   5 -12  226.15   34.77
   9  -5 -13   88.46   11.38
  -9   5 -13   64.67    9.25
   9   5 -13   59.11   15.92
  -9  -5 -13   68.98    9.07
  -9   5 -13   66.73   20.63
   9  -5 -14  229.81   18.59
  -9   5 -14  212.75   17.25
  -9  -5 -14  223.76   16.86
   9  -5 -15   50.66    8.93
  -9  -5 -15   70.85    8.70
   9  -5 -16    9.20    4.94
   9   5 -16    2.06    3.10
  -9  -5 -16    7.37    4.95
   9  -5 -17   34.09    6.27
  -9   5 -17   34.79    6.93
  -9  -5 -17   40.28    6.44
  -9   5 -18   54.44    7.36
   9  -5 -18   52.11    6.11
  -9   5 -19   19.29    4.80
  -9   5 -20    8.04    3.39
 -10   5   0 1139.67   66.49
 -10   5   0 1129.51   54.76
 -10  -5   0 1051.07   66.99
 -10   5   0  941.99   58.78
 -10  -5   0  856.78   60.77
 -10   5   1   17.18    6.22
 -10  -5   1   17.86    9.18
 -10   5  -1   17.89    6.90
 -10  -5   1   27.97    8.94
 -10   5   1   18.94    7.69
 -10  -5  -1   22.91    8.20
 -10   5  -1   18.25    7.55
 -10   5   1   36.13    4.55
 -10   5   2  641.23   43.54
 -10  -5  -2  590.08   42.98
 -10   5  -2  580.88   41.74
 -10   5  -2  538.47   36.77
 -10   5   2  606.98   32.03
 -10  -5   2  495.90   38.49
 -10  -5  -2  490.97   38.09
 -10  -5   2  596.60   43.98
 -10  -5   3  249.19   26.23
 -10  -5  -3  256.75   26.09
 -10   5  -3  264.00   25.38
 -10   5  -3  248.33   21.28
 -10   5   3  265.67   25.98
 -10  -5   3  261.99   17.04
 -10   5   3  283.72   16.95
 -10  -5   3  215.17   22.57
 -10  -5  -3  225.96   22.29
 -10   5   4 1573.16   90.84
 -10  -5   4 1515.79   91.67
 -10   5  -4 1635.63   84.22
 -10  -5  -4 1557.46   91.06
 -10   5  -4 1478.40   88.97
 -10  -5   4 1515.78   78.42
 -10   5   4 1659.12   78.46
 -10  -5   4 1299.04   85.11
 -10  -5  -4 1271.81   84.61
  10   5   5   93.31   16.45
 -10   5  -5  108.96   12.46
 -10  -5   5   82.03   14.05
 -10  -5  -5   73.76   13.27
 -10  -5   5   87.77   15.48
 -10   5   5   92.50   15.69
 -10  -5  -5   66.85   13.87
 -10   5  -5   79.84   13.92
 -10   5  -5   96.44    9.06
 -10  -5   5   89.49    8.69
 -10   5   5   98.77    8.73
 -10  -5   6  328.09   31.87
 -10   5  -6  379.29   25.86
 -10  -5  -6  327.25   31.24
 -10   5  -6  378.98   22.53
 -10   5   6  325.36   31.13
 -10  -5   6  324.75   27.52
 -10  -5  -6  317.61   27.67
  10   5   6  321.95   31.52
 -10   5  -7  163.85   15.15
 -10   5  -7  156.56   12.84
 -10  -5   7  165.11   17.38
 -10  -5  -7  119.76   16.53
 -10   5   7  141.55   19.64
 -10   5   8 1030.60   68.43
 -10   5  -8 1033.81   56.53
 -10  -5  -8 1104.25   57.00
 -10  -5   8 1104.14   60.81
 -10  -5  -8  897.62   59.61
 -10  -5  -9   11.09    6.35
 -10   5   9   14.03    8.53
 -10  -5  -9   16.45    5.53
  10   5  -9   22.44   11.15
 -10   5  -9   15.11    5.17
 -10  -5  -9   11.71    4.65
 -10  -5 -10  360.61   23.62
  10   5 -10  335.04   36.84
 -10   5 -10  379.41   24.55
 -10  -5 -10  383.70   24.61
 -10   5 -10  436.92   51.12
 -10  -5 -11  236.76   16.20
  10   5 -11  249.30   30.13
 -10   5 -11  225.93   17.54
 -10  -5 -11  232.15   17.43
 -10   5 -11  178.02   32.88
  10  -5 -12  416.40   27.08
 -10   5 -12  336.12   23.65
 -10  -5 -12  359.11   23.66
 -10   5 -12  363.81   44.95
 -10   5 -13    9.27    5.43
 -10  -5 -13    9.78    5.54
  10  -5 -13    7.55    6.21
  10  -5 -14  337.32   23.55
 -10   5 -14  320.43   22.35
 -10  -5 -14  322.38   21.84
  10  -5 -15  179.16   15.01
 -10   5 -15  164.46   14.27
 -10  -5 -15  177.35   13.99
  10  -5 -16  185.68   14.65
  10  -5 -17   68.07    7.75
  10  -5 -18  108.59    8.73
 -10   5 -18  133.61   10.69
 -10   5 -19   13.26    4.04
 -10   5 -20   25.52    3.75
 -11   5   0  181.15   17.47
 -11   5   0  230.22   23.54
 -11  -5   0  178.84   22.74
 -11  -5   0  183.23   20.40
 -11   5   1  880.36   60.67
 -11   5   1  865.62   52.99
 -11   5  -1  872.49   54.28
 -11  -5   1  890.06   62.26
 -11  -5  -1  831.48   60.75
 -11  -5   1  824.41   56.60
 -11   5  -1  932.05   60.82
 -11  -5   1  959.42   49.82
 -11   5   1 1001.47   49.52
 -11  -5   2   47.71   10.98
 -11  -5  -2   36.12   10.76
 -11   5   2   54.52    8.14
 -11   5  -2   54.26   10.50
 -11  -5   2   40.84   12.09
 -11   5   2   31.43   10.67
 -11  -5  -2   47.90   12.73
 -11   5  -2   36.64   10.84
 -11  -5   2   59.74    7.09
 -11   5   2   50.76    6.58
 -11  -5   3  921.60   65.93
 -11  -5  -3  949.50   65.72
 -11   5  -3 1099.67   66.31
 -11   5  -3 1071.33   59.59
 -11   5   3 1012.44   65.97
 -11  -5   3  997.64   53.71
 -11   5   3 1054.82   53.57
 -11  -5   3  954.38   61.25
 -11  -5  -3  867.30   59.84
 -11  -5   4  386.49   34.83
 -11   5   4  344.99   32.67
 -11  -5  -4  316.13   32.10
 -11   5  -4  416.84   28.24
 -11   5  -4  328.02   31.48
 -11  -5   4  370.29   23.02
 -11   5   4  414.61   23.09
 -11  -5   4  351.73   29.26
 -11  -5  -4  328.79   28.33
 -11   5  -5 1198.59   66.25
 -11   5  -5 1108.74   72.54
 -11   5  -5 1137.59   61.54
 -11   5   5 1169.40   74.37
 -11  -5   5 1120.15   61.09
 -11   5   5 1235.27   61.24
 -11  -5   5 1142.54   68.47
 -11  -5  -5 1067.73   67.47
  11   5   5 1199.40   76.56
 -11  -5   6    7.66    3.60
 -11   5   6    8.39    3.59
 -11  -5   6    6.32    7.77
 -11  -5  -6    2.73    7.18
 -11   5   6   -6.12   11.16
 -11   5  -6    5.87    6.20
 -11   5  -6   11.29    4.52
 -11   5  -7  544.64   34.44
 -11   5  -7  508.96   31.45
 -11  -5   7  501.12   30.56
 -11   5   7  549.13   30.73
 -11   5   7  507.72   42.47
 -11  -5   7  568.70   36.09
 -11  -5  -7  523.98   35.63
 -11   5  -8  104.50   12.41
 -11   5   8  111.02   18.08
 -11  -5  -8  100.30   11.22
 -11   5  -8   91.67   10.22
 -11  -5   8  118.14   12.98
 -11  -5  -8   98.67   12.59
 -11  -5  -9 1084.47   58.51
 -11   5  -9 1036.12   58.18
 -11  -5   9 1073.90   58.89
 -11  -5  -9 1080.09   59.64
 -11   5  -9 1052.68   88.69
 -11  -5 -10  194.74   15.07
  11   5 -10  193.66   26.58
 -11   5 -10  185.09   15.38
 -11  -5 -10  212.45   15.74
 -11   5 -10  210.43   35.20
 -11  -5 -11  330.73   21.18
 -11   5 -11  345.67   22.92
  11   5 -11  287.68   33.71
 -11   5 -11  365.25   44.92
  11  -5 -12  121.71   13.43
 -11   5 -12  108.18   11.39
  11  -5 -13  637.83   38.87
 -11   5 -13  616.05   36.95
  11  -5 -14  116.30   12.49
 -11   5 -14  140.34   12.33
  11  -5 -15  164.40   14.30
 -11   5 -15  185.77   14.35
  11  -5 -16   18.96    5.10
 -11   5 -16    9.55    5.06
  11  -5 -17  265.98   16.98
  11  -5 -18   14.24    2.98
 -12   5   0  435.17   37.04
 -12   5   0  432.82   29.66
 -12  -5   0  388.31   31.70
 -12  -5   1   55.72    7.22
 -12   5   1   72.60    7.57
 -12  -5   1   64.66   13.61
 -12   5   1   64.57    9.91
 -12   5  -1   60.42   10.16
 -12   5  -1   61.91   13.20
 -12   5   2  365.94   26.16
 -12   5  -2  404.83   29.04
 -12   5   2  396.08   35.63
 -12   5  -2  357.51   33.87
 -12  -5   2  421.55   31.76
 -12  -5   2  385.96   24.59
 -12   5   2  437.67   24.71
 -12   5   3  578.58   45.69
 -12   5  -3  452.26   42.03
 -12   5  -3  661.66   39.18
 -12  -5   3  674.80   41.42
 -12  -5  -3  576.43   39.34
 -12  -5   3  542.03   33.23
 -12   5   3  591.36   33.23
 -12   5   4  596.59   47.51
 -12   5  -4  682.34   40.97
 -12   5  -4  545.29   45.60
 -12  -5   4  593.50   35.61
 -12   5   4  662.25   35.75
 -12  -5   4  663.82   42.40
 -12  -5  -4  621.63   41.44
 -12  -5   5   39.91    9.97
 -12  -5  -5   45.69   10.05
 -12  -5   5   28.89    5.87
 -12   5   5   31.89    5.85
 -12   5  -5   46.86    9.32
 -12   5   5   18.94    9.98
 -12   5  -5   24.80   10.63
 -12   5  -5   47.26    6.51
 -12   5  -6  293.41   21.70
 -12   5   6  197.98   25.91
 -12   5  -6  226.96   17.63
 -12  -5   6  269.73   17.71
 -12   5   6  265.43   17.39
 -12  -5   6  259.42   21.65
 -12  -5  -6  264.83   21.87
 -12  -5   7   45.78    6.48
 -12   5   7   46.36    6.25
 -12  -5   7   50.25    9.30
 -12  -5  -7   32.62    8.75
 -12   5  -7   41.08    8.64
 -12  -5  -7   37.08    8.47
 -12   5  -7   43.95    6.98
 -12   5  -8  753.39   43.10
 -12  -5  -8  740.74   41.61
 -12   5  -8  651.99   40.13
 -12  -5   8  686.25   39.32
 -12   5   8  711.12   39.36
 -12  -5   8  732.67   41.93
 -12  -5  -8  695.36   41.89
 -12   5  -8  646.16   66.29
 -12   5   9    4.31    4.02
 -12  -5  -9   14.87    5.41
 -12  -5  -9   17.32    5.73
 -12  -5   9    7.59    4.37
  12   5  -9    2.09    8.25
 -12   5  -9   27.08    6.31
 -12   5  -9   13.45   13.80
 -12  -5 -10  302.54   20.13
 -12   5 -10  313.16   20.92
 -12   5  10  307.50   19.49
  12  -5 -10  259.50   22.64
 -12  -5 -11  349.48   21.73
 -12   5 -11  341.39   23.07
 -12   5 -12  378.65   24.75
  12  -5 -13   48.02    8.72
 -12   5 -13   54.14    7.81
 -12   5 -14   94.69    9.59
  12  -5 -14   72.16    9.48
  12  -5 -15   -1.81    4.43
 -12   5 -15    0.43    3.97
  12  -5 -16  226.71   16.21
 -12   5 -16  279.31   17.30
  12  -5 -17    2.29    2.70
 -12   5 -17    4.22    3.47
 -12   5 -18   28.49    4.19
 -13   5   0  347.70   34.57
 -13   5   0  401.15   27.87
 -13  -5   0  442.21   30.92
 -13  -5   1   62.38   11.79
 -13   5   1   46.68    8.55
 -13   5  -1   50.75    9.49
 -13   5   1   31.64   11.14
 -13   5  -1   18.59   11.34
 -13  -5   2  339.14   22.55
 -13   5   2  352.11   22.29
 -13   5   2  325.01   23.64
 -13  -5   2  387.07   28.31
 -13   5  -3  202.45   17.57
 -13  -5   3  185.71   18.02
 -13  -5  -3  131.00   16.09
 -13  -5   3  156.60   13.26
 -13   5   3  171.15   13.07
 -13   5  -4  215.55   18.57
 -13  -5   4  199.58   18.70
 -13  -5  -4  191.73   18.30
 -13  -5   4  187.16   14.55
 -13   5   4  189.61   14.34
 -13  -5   5   10.41    6.68
 -13  -5  -5   23.67    8.00
 -13   5  -5   22.72    7.29
 -13  -5   5    6.82    4.15
 -13   5   5    9.27    4.26
 -13  -5  -6   12.19    6.41
 -13   5  -6    9.83    6.60
 -13  -5   6    2.09    4.02
 -13   5   6    5.60    4.11
 -13  -5  -6    1.85    6.41
 -13  -5   6   20.19    7.19
 -13   5  -6    8.30    4.34
 -13   5  -7  116.56   12.62
 -13  -5  -7  111.99   11.84
 -13   5  -7   89.97   10.09
 -13  -5   7   84.95    9.24
 -13   5   7  112.07    9.97
 -13  -5   7  124.48   12.20
 -13  -5  -7  116.13   12.27
 -13   5  -8   71.93   10.22
 -13  -5  -8   64.59    9.04
 -13   5  -8   67.70    8.59
 -13  -5   8   66.85    7.79
 -13   5   8   69.84    7.79
 -13  -5   9   34.37    6.07
 -13   5   9   35.59    6.09
 -13  -5  -9   49.36    7.24
 -13   5  -9   42.63    7.07
  13  -5 -10  313.55   24.41
 -13  -5 -10  344.06   21.44
 -13   5 -10  336.08   22.09
 -13  -5  10  307.17   20.22
 -13   5  10  330.43   20.48
 -13  -5 -11   86.99    8.30
 -13   5 -11   76.53    9.11
 -13   5  11   71.83    7.79
 -13   5  12    1.51    2.89
 -13  -5 -12    1.41    2.81
 -13   5 -12    7.40    4.68
  13  -5 -13   15.82    6.02
 -13   5 -13   11.36    4.62
  13  -5 -14    0.47    4.75
 -13   5 -14    2.43    3.99
  13  -5 -15   69.80    7.83
 -13   5 -15   68.56    7.63
  13  -5 -16   10.18    3.73
 -13   5 -16   11.17    3.92
 -13   5 -17    4.48    2.68
 -14   5   0  317.90   22.85
 -14  -5   0  320.83   24.71
 -14  -5   1   15.16    7.55
 -14   5   1   10.61    5.40
 -14   5  -1   17.84    6.76
 -14  -5   2   10.38    7.52
 -14   5  -2   15.74    7.21
 -14  -5   3  241.17   17.81
 -14   5  -3  285.85   21.37
 -14   5   3  245.99   17.62
 -14  -5   3  307.44   22.19
 -14  -5  -3  288.50   21.72
 -14   5  -4  197.04   17.51
 -14  -5  -4  216.63   17.58
 -14  -5   4  221.22   18.26
 -14  -5  -4  214.02   17.95
 -14  -5   4  199.06   15.02
 -14   5   4  185.81   14.42
 -14   5  -5  115.02   13.11
 -14  -5  -5  128.17   13.12
 -14  -5   5  143.30   13.73
 -14  -5  -5  127.00   13.22
 -14  -5   5  113.16   10.79
 -14   5   5  125.82   10.81
 -14   5  -5  113.67   24.45
 -14  -5  -6   23.95    6.71
 -14   5  -6   14.78    6.92
 -14  -5  -6   17.08    6.74
 -14  -5   6   21.01    5.20
 -14   5   6   18.59    4.82
 -14   5  -6   20.14    4.92
 -14   5  -7   63.32    9.60
 -14  -5  -7   66.18    8.70
 -14   5   7   56.07    7.28
 -14   5  -7   52.21    7.49
 -14  -5   7   62.64    7.52
 -14   5  -8  134.93   11.89
 -14  -5   8  116.19   10.53
 -14   5   8  127.34   10.83
 -14  -5  -9   59.30    7.97
 -14   5  -9   54.67    7.42
 -14   5   9   56.73    6.73
  14  -5 -10    5.27    6.08
 -14   5  10    1.57    3.00
 -14  -5 -10    6.16    4.04
 -14   5 -10    0.44    4.04
 -14  -5 -11   71.12    7.25
 -14   5 -11   67.84    8.21
  14  -5 -11   71.65   10.08
 -14  -5 -12   71.90    6.51
 -14   5 -12   83.86    8.79
  14  -5 -13   11.25    5.14
 -14   5 -13    9.24    4.21
  14  -5 -14    7.05    4.06
 -14   5 -14    9.56    3.86
  14  -5 -15   40.78    5.36
 -14   5 -15   31.71    4.81
  14  -5 -16    9.52    2.73
 -14   5 -16   10.66    2.82
 -15  -5   0   13.96    6.01
 -15   5   0    2.08    4.67
 -15   5  -1  160.71   14.71
 -15  -5   1  193.77   16.34
 -15  -5   2   -3.73    5.99
 -15   5  -2   -1.17    5.73
 -15  -5  -2    1.78    5.81
 -15   5  -3  193.96   16.86
 -15  -5  -3  224.27   17.41
 -15   5  -4  436.32   27.14
 -15  -5   4  377.11   24.11
 -15  -5   5   98.19    9.28
 -15   5   5   91.37    8.94
 -15   5  -5   94.93   11.24
 -15  -5  -5  104.15   11.22
 -15   5  -6   20.19    6.59
 -15  -5  -6   10.71    5.53
 -15  -5   6    9.16    4.13
 -15   5   6    6.66    3.79
 -15  -5  -7  166.78   13.21
 -15  -5   7  145.85   12.23
 -15   5   7  132.22   11.17
 -15  -5  -8    5.64    4.82
 -15  -5   8    7.67    3.79
 -15   5   8    7.30    3.53
 -15   5  -8    1.14    3.42
  15  -5  -9   64.18    9.76
 -15  -5  -9   55.85    7.19
 -15   5  -9   49.79    6.68
  15  -5 -10   42.09    8.14
 -15  -5 -10   52.80    6.35
 -15   5 -10   43.69    6.29
  15  -5 -11   49.65    7.96
 -15  -5 -11   38.57    4.99
 -15   5 -11   46.70    6.19
 -15   5 -12   56.44    6.50
  15  -5 -13   21.24    5.23
 -15   5 -13   22.56    4.17
  15  -5 -14   14.49    3.93
 -15   5 -14   14.11    3.33
  15  -5 -15   15.91    3.04
 -16  -5   0   23.87    6.62
 -16  -5  -1    6.21    5.28
 -16  -5   1    3.60    5.27
 -16  -5  -2   24.06    6.87
 -16  -5   2   25.13    6.96
 -16   5  -3  189.23   15.06
 -16  -5   3  187.00   15.01
 -16  -5   4    8.26    5.08
 -16  -5  -5  121.87   11.33
 -16  -5   5  120.10   11.01
 -16  -5  -6    6.13    4.86
 -16  -5   6    3.80    4.09
  16  -5  -7   41.39    8.06
 -16  -5   7   59.21    6.58
 -16  -5  -7   52.54    7.22
  16  -5  -8   28.06    7.55
 -16  -5  -8   21.82    5.08
  16  -5  -9   18.87    6.22
 -16  -5  -9   20.53    4.56
  16  -5 -10   16.16    5.55
 -16  -5 -10   25.97    4.21
 -16   5 -10   19.13    3.78
 -16  -5 -11   74.52    6.04
 -16   5 -11   68.97    6.38
  16  -5 -14   15.76    2.87
 -17  -5   0   22.67    6.00
 -17  -5  -1  182.72   13.84
 -17  -5   1  220.22   14.39
 -17  -5  -2   57.96    7.65
 -17  -5   2   59.30    7.60
 -17  -5  -3  107.58   10.39
 -17  -5   3  112.31   10.13
 -17  -5   4  287.80   18.51
  17  -5  -5  135.92   12.24
 -17  -5  -5  149.02   11.65
 -17  -5   5  132.74   10.67
  17  -5  -6    2.40    4.40
 -17  -5  -6    2.49    3.80
 -17  -5   6    0.56    3.01
  17  -5  -7   34.35    6.54
 -17  -5  -7   38.77    5.66
 -17  -5   7   33.22    4.36
  17  -5  -8    0.43    4.01
 -17  -5  -8    2.28    3.17
  17  -5  -9  171.51   13.46
 -17  -5  -9  194.17   12.17
 -17  -5 -10   67.13    5.56
  17  -5 -10   61.31    7.02
  17  -5 -11   46.39    5.59
 -18  -5   0   84.05    8.06
 -18  -5  -1   11.14    4.15
 -18  -5   1    8.47    3.95
 -18  -5  -2   49.61    6.27
 -18  -5   2   52.51    6.05
 -18  -5  -3  194.68   12.96
 -18  -5   3  205.42   12.65
  18  -5  -4   57.39    7.01
 -18  -5   4   63.94    6.34
  18  -5  -5   10.70    4.30
 -18  -5   5    9.29    3.09
  18  -5  -6    6.58    3.80
 -18  -5  -6   11.04    3.62
 -18  -5   6    7.92    2.37
  18  -5  -7    2.61    3.22
 -18  -5  -7    2.86    2.78
  18  -5  -8   61.13    6.47
 -18  -5  -8   60.94    5.54
  18  -5  -9    3.14    2.63
 -18  -5  -9    0.88    1.70
  18  -5 -10   25.56    3.64
 -19  -5   0   45.56    5.09
 -19  -5  -1   42.18    4.93
 -19  -5   1   39.47    4.91
 -19  -5  -2   38.27    4.88
 -19  -5   2   43.10    4.71
  19  -5  -3    8.67    2.56
 -19  -5  -3   12.23    3.41
 -19  -5   3    3.37    2.40
  19  -5  -4   30.33    4.07
 -19  -5   4   31.49    3.45
  19  -5  -5   32.58    4.11
  19  -5  -6   -0.62    2.10
 -19  -5  -6   -1.62    2.17
  19  -5  -7    7.07    2.27
 -19  -5  -7    8.41    2.09
 -20  -5   0  209.00   11.96
 -20  -5  -1    2.77    1.70
 -20  -5  -2  132.57    8.32
 -20  -5  -3   29.97    3.17
   0   6   0 1820.29  105.40
   0   6   1   20.60    7.68
   0   6  -1   17.87    7.69
   0   6  -1    7.20    6.01
   0   6  -2  158.48   16.96
   0   6   2  159.94   19.84
   0   6  -3   38.15    8.67
   0   6   3   45.48   11.47
   0   6  -3   35.31    6.78
   0   6  -4 8806.42  437.89
   0   6  -4 8908.69  441.61
   0   6  -5  240.10   21.29
   0   6  -5  289.93   23.50
   0   6  -6   16.38    6.68
   0  -6  -6    6.75    3.96
   0   6  -6   11.73    6.21
   0   6  -7   -0.94    3.86
   0   6  -7    1.11    4.89
   0   6  -8 1031.46   62.84
   0   6  -8 1127.96   67.74
   0  -6  -9    5.01    4.20
   0   6  -9   -1.39    7.25
   0  -6 -10  795.02   44.77
   0   6 -10  747.81   54.92
   0   6 -11   25.20   11.05
   0  -6 -11   24.65    6.31
   0  -6 -12 1781.26   93.49
   0   6 -12 1759.95  108.41
   0  -6 -13   73.88    9.70
   0   6 -13   50.49   14.68
   0  -6 -14   14.79    5.64
   0   6 -14   11.26    5.53
   0   6 -14   12.17   10.08
   0  -6 -15   14.75    5.66
   0   6 -15   21.69    6.16
   0  -6 -16  292.13   20.46
   0   6 -16  298.15   21.08
   0  -6 -17    4.01    4.71
   0   6 -17   13.42    6.45
   0   6 -18  375.28   24.37
   0   6 -19   55.97    7.58
   0   6 -20   88.59    8.31
   0   6 -21   22.07    3.76
   0  -6 -21   16.99    4.18
   0  -6 -22   -1.52    2.30
   1   6   0   50.17   11.18
   1   6   1  152.00   17.42
   1   6   1  152.74   19.00
   1   6  -1  154.25   19.08
   1   6   2 1195.55   73.20
   1   6   2 1193.20   76.99
   1   6  -2 1328.41   74.61
   1   6  -3 3142.96  161.62
   1   6   3 3122.14  172.88
   1   6  -3 3252.77  168.01
   1   6  -4  179.32   17.06
  -1   6  -4  227.14   18.22
   1   6  -4  184.73   19.63
   1   6  -5 1499.43   84.63
  -1   6  -5 1497.21   84.42
   1   6  -5 1578.11   87.53
  -1  -6  -6  432.51   24.51
   1   6  -6  355.71   28.96
  -1   6  -6  458.94   31.24
   1  -6  -6  350.53   23.63
   1   6  -6  354.94   29.63
   1   6  -7   13.42    6.25
   1  -6  -7   18.77    4.65
   1   6  -7   13.40    6.51
  -1   6  -7    7.77    6.10
   1   6  -8  227.28   22.72
  -1   6  -8  165.59   19.92
   1   6  -8  197.03   19.52
   1  -6  -9  800.49   44.90
  -1  -6  -9  743.17   44.21
   1   6  -9  838.24   55.29
  -1   6  -9  804.05   54.49
   1   6  -9  814.20   50.27
   1  -6 -10  354.89   24.67
   1   6 -10  352.62   33.88
  -1   6 -10  442.05   36.04
  -1  -6 -10  399.35   25.10
   1  -6 -11  787.37   45.49
  -1  -6 -11  785.86   45.00
   1   6 -11  752.81   56.70
  -1   6 -11  820.85   57.75
   1  -6 -12   83.41   10.30
  -1  -6 -12  103.48   10.76
   1   6 -12   79.20   17.06
  -1   6 -12   81.07   16.84
  -1  -6 -13  318.59   22.29
   1  -6 -13  349.84   23.25
  -1   6 -13  311.42   21.89
   1   6 -13  372.68   36.51
  -1   6 -13  290.53   33.00
  -1  -6 -14  250.91   17.78
   1  -6 -14  193.16   17.07
  -1   6 -14  253.49   17.89
   1   6 -14  176.76   26.74
  -1  -6 -15   10.03    5.15
   1  -6 -15   28.37    6.81
  -1   6 -15   12.55    5.93
   1   6 -15   19.34    5.85
   1   6 -15    8.40   10.44
  -1  -6 -16   54.30    7.80
   1  -6 -16   44.74    7.69
  -1   6 -16   50.83    8.84
   1   6 -16   60.01    8.50
   1  -6 -17  437.57   27.92
  -1   6 -17  458.11   29.29
   1   6 -17  502.26   29.39
   1  -6 -18   28.80    5.52
  -1   6 -18   41.91    7.31
   1   6 -18   32.96    6.98
  -1   6 -19  147.64   12.43
   1   6 -19  149.17   12.27
  -1   6 -20   73.56    7.53
   1   6 -20   57.35    6.85
  -1  -6 -20   84.90    8.18
  -1   6 -21    4.16    2.83
   1   6 -21    6.49    2.69
  -1  -6 -21    1.84    3.27
   1  -6 -21    5.82    3.49
  -1  -6 -22    5.39    2.52
   1  -6 -22    3.62    2.30
   2   6   0 1735.81  100.38
  -2   6   0 1700.88  100.22
   2   6   1  559.19   42.72
  -2   6   1  615.97   43.98
   2   6  -1  671.60   45.14
  -2   6  -1  549.56   42.53
   2   6   1  511.11   39.42
   2   6   2 1897.99  109.21
  -2   6   2 1899.28  109.35
   2   6  -2 1867.13   98.49
   2   6  -2 1919.27  106.13
   2   6   2 1862.54  106.09
   2   6   3  596.81   42.76
   2   6  -3  600.00   37.94
   2   6   3  650.36   47.06
  -2   6   3  616.61   46.33
   2   6  -3  645.81   43.52
   2   6   4  853.94   60.14
  -2   6   4  882.96   60.46
   2   6  -4  862.56   52.17
   2   6  -4  919.55   57.11
   2   6  -5  278.34   23.41
   2   6  -5  305.97   26.48
   2   6  -6   35.66    9.00
  -2  -6  -6   29.76    5.39
   2  -6  -6   29.73    5.57
   2   6  -6   32.63    8.34
   2  -6  -7  495.48   30.03
   2   6  -7  496.08   37.21
   2   6  -7  507.10   37.25
   2   6  -8   91.18   13.31
  -2  -6  -8   88.45    9.33
   2   6  -8   82.38   14.38
   2   6  -9  157.03   20.12
  -2  -6  -9  130.93   11.76
   2   6  -9  120.41   15.52
  -2  -6 -10  778.44   43.32
   2  -6 -10  769.06   43.92
   2   6 -10  781.58   55.11
   2   6 -10  677.62   48.00
  -2  -6 -11  388.36   23.94
   2  -6 -11  328.27   23.81
   2   6 -11  314.11   33.15
  -2  -6 -12  103.08   10.93
   2   6 -12  104.58   19.51
   2  -6 -12  120.84   11.97
   2  -6 -13   62.73    9.58
  -2   6 -13   98.70   10.15
   2   6 -13   45.70   14.78
  -2  -6 -13   85.57    9.82
   2  -6 -14   12.18    5.94
  -2  -6 -14   20.23    5.87
   2   6 -14   10.36   11.33
  -2   6 -14   22.05    6.23
   2  -6 -15  126.03   12.72
  -2  -6 -15  143.55   12.59
  -2   6 -15  147.46   13.54
   2   6 -15  136.42   12.48
   2   6 -15  109.79   21.95
   2  -6 -16   17.93    5.71
  -2   6 -16   17.99    6.64
   2   6 -16   23.31    6.34
   2  -6 -17    9.97    4.91
  -2   6 -17   11.70    5.86
   2   6 -17    5.95    4.90
   2  -6 -18  212.14   15.33
  -2   6 -18  229.47   16.83
   2   6 -18  215.62   15.97
  -2   6 -19   44.68    7.11
   2   6 -19   43.64    6.60
  -2  -6 -19   44.78    7.02
  -2   6 -20   35.91    5.64
   2   6 -20   23.97    4.62
  -2  -6 -20   41.89    6.14
  -2   6 -21   20.55    3.95
   2   6 -21   16.87    3.13
  -2  -6 -21   22.29    4.30
  -2  -6 -22    5.99    2.48
   2  -6 -22    3.04    2.22
   3   6   0    2.41    5.48
   3   6   0    1.38    4.98
  -3   6   0    6.92    5.23
   3   6   1  259.54   25.36
  -3   6   1  239.25   24.75
   3   6  -1  221.15   24.11
  -3   6  -1  270.42   26.06
   3   6   1  209.74   21.99
   3   6   2  203.15   21.69
  -3   6   2  203.79   21.98
   3   6  -2  136.60   14.15
   3   6   2  182.39   19.28
   3   6  -3 2355.17  126.25
   3   6   3 2553.13  136.88
  -3   6   3 2423.48  135.56
   3   6  -3 2397.87  132.96
   3   6   3 2389.12  131.55
   3   6  -4   58.13   11.95
   3   6   4   44.33    9.63
   3   6   4   64.35   13.00
  -3   6   4   34.04   10.72
   3   6  -4   64.23    9.97
   3   6  -5   61.15   12.15
  -3  -6  -5   71.35    7.61
   3   6   5   44.46   10.73
   3   6  -5   57.99   10.22
   3   6  -6   33.27    9.00
   3  -6  -6   32.77    5.81
   3   6  -6   33.60    8.69
   3   6  -7   26.82    8.87
   3  -6  -7   11.47    4.34
   3   6  -7   18.07    8.14
   3   6  -8   29.09    8.80
  -3  -6  -8   26.08    5.55
   3  -6  -8   15.35    4.39
  -3  -6  -8   16.71    4.65
   3   6  -8   10.69    8.10
   3   6  -9   30.92    9.20
  -3  -6  -9   33.98    6.63
   3   6  -9   47.22   11.53
  -3   6  -9   41.43    5.87
   3   6 -10    2.37    4.88
  -3  -6 -10    2.01    4.51
   3  -6 -10    9.43    4.89
   3   6 -10    1.62    8.04
  -3   6 -10    7.33    3.93
  -3  -6 -11 1008.27   56.10
   3  -6 -11 1033.22   57.38
   3   6 -11 1017.65   69.93
  -3  -6 -12   19.50    5.78
   3  -6 -12   33.51    7.19
   3   6 -12   24.59   11.45
  -3  -6 -13   63.92    8.92
   3  -6 -13   92.81   10.95
   3   6 -13   92.26   18.21
  -3  -6 -14    1.56    4.58
   3  -6 -14    3.80    5.19
   3   6 -14   -6.26   10.62
  -3   6 -14    9.77    5.51
   3  -6 -15   34.43    7.46
  -3   6 -15   63.54    9.01
   3   6 -15   35.92   13.56
   3  -6 -16    2.79    4.54
  -3   6 -16   -0.58    5.61
   3   6 -16    3.92    4.96
  -3   6 -17   17.71    6.18
   3  -6 -17    7.74    4.84
   3   6 -17    1.87    4.72
   3  -6 -18   -2.31    3.95
  -3   6 -18    1.01    4.82
   3   6 -18    5.10    4.38
  -3  -6 -18    7.62    5.20
  -3   6 -19  323.03   20.13
   3   6 -19  267.17   18.45
  -3  -6 -19  313.78   19.94
  -3   6 -20   12.83    4.50
   3   6 -20   11.23    3.62
  -3  -6 -20   13.33    4.47
  -3   6 -21   52.29    5.55
  -3  -6 -21   39.67    5.30
  -3  -6 -22    0.57    1.77
   3  -6 -22    0.75    1.79
   4   6   0 1087.43   70.83
  -4   6   0 1101.17   71.07
   4   6   0 1150.13   70.24
   4   6   1  953.39   60.05
  -4   6   1  885.14   58.73
   4   6   1  803.96   56.53
   4   6   2 1717.87   97.75
  -4   6   2 1669.10   96.64
   4   6  -2 1581.05   88.36
   4   6   2 1558.34   93.66
   4   6  -3 1427.58   82.16
   4   6   3 1586.61   91.67
  -4   6   3 1507.43   89.93
   4   6  -3 1558.13   89.47
   4   6   3 1357.27   85.99
   4   6  -4  531.16   37.88
   4   6   4  593.92   44.80
  -4   6   4  570.42   43.83
  -4  -6  -4  555.59   32.08
   4   6   4  544.29   40.42
   4   6   5  305.83   26.91
  -4   6   5  329.21   31.25
   4  -6  -5  298.69   20.41
   4   6   5  267.38   29.22
  -4  -6  -5  294.77   19.60
   4   6  -5  313.42   26.23
   4  -6  -6  179.79   14.08
   4   6  -6  166.32   19.05
  -4   6  -6  151.95   11.36
  -4  -6  -6  160.98   12.78
  -4  -6   7  591.23   35.42
   4  -6  -7  657.14   37.24
  -4   6  -7  602.40   34.07
  -4  -6  -7  590.00   35.30
  -4  -6  -8   93.28   10.11
  -4  -6  -8  114.25   10.54
   4  -6  -8  131.69   12.20
   4   6  -8  113.02   17.30
  -4   6  -8  100.85    9.30
   4   6  -8  144.40   18.59
  -4  -6  -9  516.90   30.82
   4   6  -9  494.08   41.00
  -4   6  -9  511.77   29.75
   4   6  -9  466.28   39.04
  -4  -6 -10 1185.95   62.59
   4   6 -10 1061.74   74.36
  -4   6 -10 1166.97   61.73
   4   6 -10 1096.59   71.62
  -4  -6 -11  394.95   24.56
   4  -6 -11  412.84   26.27
   4   6 -11  319.04   34.50
  -4   6 -11  353.44   23.46
   4   6 -11  294.03   29.40
   4  -6 -12   81.17   10.79
  -4  -6 -12  106.88   10.70
   4   6 -12   82.56   18.04
   4  -6 -13  191.66   16.86
   4   6 -13  179.88   25.89
   4   6 -14   25.04   12.64
  -4   6 -14   34.91    7.36
   4  -6 -14   24.10    7.32
   4  -6 -15  229.41   18.01
  -4   6 -15  213.16   17.20
   4   6 -15  183.11   27.51
   4  -6 -16   19.78    6.21
  -4   6 -16    7.48    5.72
   4   6 -16   16.19    5.16
  -4  -6 -16   21.05    6.27
  -4   6 -17   61.70    8.72
   4   6 -17   48.20    7.27
   4  -6 -17   44.90    7.29
  -4  -6 -17   63.87    8.45
   4  -6 -18  332.16   22.60
  -4   6 -18  414.84   24.77
   4   6 -18  360.18   22.86
  -4  -6 -18  422.20   24.53
   4  -6 -19   76.99    7.28
  -4   6 -19   88.82    9.38
   4   6 -19  106.90    8.54
  -4  -6 -19   83.56    9.01
  -4   6 -20    9.07    4.04
   4   6 -20    2.72    2.76
  -4  -6 -20    9.52    4.03
  -4   6 -21   14.21    3.46
  -4  -6 -21   17.17    3.58
  -4  -6 -22    2.69    1.81
   4  -6 -22    3.10    1.76
   5   6   0  685.30   47.67
  -5   6   0  629.08   46.32
   5   6   0  581.38   45.85
   5   6   1    8.50    8.07
   5   6   1   18.60    7.65
  -5   6   1    7.05    6.03
   5   6   2 1879.43  102.44
  -5   6   2 1687.48  100.16
   5   6   2 1579.58   98.61
  -5  -6   3  891.95   49.16
  -5  -6  -3  867.87   48.87
   5   6   3  923.42   61.44
  -5   6   3 1016.06   62.49
   5   6   3  880.69   58.84
  -5  -6   4  507.62   30.78
   5  -6  -4  511.84   31.31
  -5  -6  -4  490.71   30.40
   5   6  -4  548.18   38.22
   5   6   4  583.47   43.77
  -5   6   4  544.81   42.38
   5   6   4  513.65   39.21
  -5  -6   5  547.58   35.09
  -5  -6  -5  632.91   35.34
   5  -6  -5  599.36   36.12
   5   6  -5  644.07   43.95
  -5  -6  -5  618.06   35.49
   5   6   5  666.98   49.48
  -5   6   5  605.62   46.76
   5   6   5  630.78   44.18
   5   6   6  953.47   62.87
  -5  -6   6 1062.11   55.33
  -5  -6  -6  968.48   54.47
   5  -6  -6 1052.11   56.16
   5   6  -6 1177.25   66.21
  -5   6  -6  943.52   52.48
   5   6   6  937.82   67.96
  -5  -6  -6  992.21   52.77
  -5  -6  -7  169.80   14.43
   5  -6  -7  194.62   15.80
  -5  -6  -7  187.75   14.39
   5   6  -7  141.99   19.75
  -5   6  -7  171.01   12.78
  -5  -6  -7  188.95   13.18
  -5  -6   7  172.90   14.61
   5  -6  -8  457.14   30.68
   5   6  -8  445.99   38.43
  -5   6  -8  515.76   28.67
  -5  -6  -8  477.47   28.40
  -5  -6  -8  497.79   29.64
  -5  -6  -8  462.27   30.07
   5   6  -9  193.07   25.54
  -5  -6  -9  232.40   19.21
   5   6 -10  607.66   47.80
  -5   6 -10  597.53   34.63
   5   6 -10  557.52   45.14
   5  -6 -11  403.01   28.55
   5   6 -11  462.88   40.83
  -5   6 -11  439.38   27.00
   5   6 -11  399.23   35.62
   5   6 -12  289.24   31.99
  -5   6 -12  239.97   19.20
  -5  -6 -12  290.42   19.78
  -5   6 -12  266.18   34.46
   5  -6 -12  312.24   22.23
   5  -6 -13  127.29   13.75
   5   6 -13  107.64   20.86
  -5  -6 -13  159.89   13.11
   5  -6 -14  332.45   23.39
   5   6 -14  272.15   33.36
  -5  -6 -14  310.98   21.53
   5  -6 -15  114.64   12.34
  -5   6 -15   93.21   11.34
  -5  -6 -15  106.37   10.97
   5  -6 -16  141.12   13.57
  -5   6 -16  164.22   14.05
   5   6 -16  135.04   11.90
  -5  -6 -16  168.81   13.57
   5  -6 -17  337.18   22.16
  -5   6 -17  358.26   23.04
   5   6 -17  306.64   20.91
  -5  -6 -17  353.05   22.58
   5  -6 -18  125.69   10.92
  -5   6 -18  138.84   12.32
   5   6 -18  129.73   10.63
  -5  -6 -18  135.40   11.76
   5  -6 -19   53.89    5.97
  -5   6 -19   98.40    9.05
   5   6 -19   60.97    6.57
  -5  -6 -19   99.76    8.81
  -5   6 -20   45.27    6.07
  -5  -6 -20   39.94    5.52
  -5   6 -21    5.36    2.68
  -5  -6 -21    4.98    2.66
  -6  -6   0   84.95    9.31
  -6  -6   1  405.90   26.62
   6   6   1  493.40   37.69
  -6   6   1  446.24   35.96
   6   6   1  427.27   37.53
   6   6   2   95.12   15.96
  -6  -6   2   82.73    9.51
  -6  -6  -2   91.22    9.75
   6   6   2  108.98   16.61
  -6   6   2  120.79   16.78
  -6  -6   3  154.15   14.17
  -6  -6  -3  191.47   14.85
   6  -6  -3  176.30   14.98
   6   6   3  251.49   25.16
  -6   6   3  226.28   23.65
   6   6   3  192.32   22.17
  -6  -6   4 2269.74  122.15
  -6  -6  -4 2344.13  122.10
   6  -6  -4 2405.97  123.32
   6   6   4 2568.21  137.57
  -6   6   4 2454.95  135.40
   6   6   4 2530.25  134.39
  -6  -6  -5  283.94   20.66
   6  -6  -5  358.51   22.93
  -6   6  -5  255.36   17.99
   6   6   5  306.68   30.81
  -6   6   5  326.10   30.75
   6   6   5  297.81   27.75
  -6  -6   5  336.75   21.90
   6  -6  -6  220.31   17.58
   6   6  -6  185.80   22.77
  -6   6  -6  204.06   14.49
  -6  -6  -6  205.04   14.56
   6   6   6  207.13   25.89
  -6   6   6  211.25   24.90
  -6  -6   6  223.65   17.32
  -6  -6  -6  211.16   16.76
   6   6   6  228.85   23.41
   6   6   7  104.03   16.01
   6  -6  -7  137.00   13.53
   6   6   7  153.00   21.82
  -6   6   7  111.41   19.22
   6   6  -7  145.34   19.76
  -6   6  -7  121.69   10.47
  -6  -6  -7  147.64   11.15
  -6  -6   7  110.71   12.62
  -6  -6  -7  117.33   12.46
   6  -6  -8   86.27   11.02
  -6  -6   8   71.59   10.61
  -6   6  -8  114.10    9.53
   6   6  -8   64.35   14.34
  -6  -6  -8   88.25    8.78
  -6  -6  -8   81.81   11.01
   6  -6  -9   64.71   10.43
  -6  -6  -9   73.73   11.06
  -6   6  -9   85.47    8.91
   6   6  -9   64.89   14.76
  -6  -6  -9   84.75    8.64
  -6   6 -10  153.47   12.93
  -6  -6 -10  177.69   13.34
   6  -6 -11  142.27   14.85
  -6   6 -11  138.89   12.95
   6   6 -11  154.08   22.88
  -6  -6 -11  178.87   13.75
   6   6 -11  154.36   21.29
   6  -6 -12  703.74   43.89
   6   6 -12  671.88   55.72
  -6   6 -12  730.35   42.02
  -6  -6 -12  779.32   42.02
  -6   6 -12  588.33   59.33
   6  -6 -13  124.61   13.26
  -6   6 -13   90.73   10.71
   6   6 -13   81.61   17.84
  -6  -6 -13   90.40   10.44
   6  -6 -14  203.45   16.76
   6   6 -14  178.81   26.17
  -6  -6 -14  157.79   14.30
   6  -6 -15   31.23    7.95
  -6  -6 -15   29.54    6.41
   6  -6 -16  102.36   11.00
  -6   6 -16  115.50   11.21
   6   6 -16   77.60    8.73
  -6  -6 -16  113.65   10.76
   6  -6 -17   77.43    9.11
  -6   6 -17   77.05    9.36
   6   6 -17   68.90    7.74
  -6  -6 -17   75.44    8.97
  -6   6 -18  158.10   12.82
   6  -6 -18  128.39   11.38
   6   6 -18  140.18   10.88
   6  -6 -19   25.01    3.88
  -6   6 -19   30.26    5.57
   6   6 -19   27.11    4.01
  -6  -6 -19   31.20    5.50
  -6   6 -20   30.89    4.99
  -6  -6 -20   34.29    4.80
  -6   6 -21    0.88    2.17
  -7  -6   0   83.26    9.92
   7  -6  -1   58.80    8.59
  -7  -6   1   57.63    8.51
   7   6   2   24.45   10.04
   7  -6  -2   29.62    6.75
   7   6   2   44.38   10.75
  -7   6   2   36.54    9.58
  -7  -6   2   35.34    7.12
  -7  -6  -2   24.21    6.09
   7  -6  -3  547.35   35.15
   7   6   3  620.70   46.11
   7   6   3  600.71   44.12
  -7  -6   3  527.90   34.32
  -7   6   3  566.74   42.78
  -7  -6  -3  549.35   34.34
   7   6   4   14.04    8.70
   7  -6  -4    4.10    4.98
  -7  -6   4    1.27    5.06
  -7  -6  -4    5.49    5.01
   7   6   4    4.80    5.76
  -7   6   4    4.44    5.84
   7  -6  -5  275.62   22.41
   7   6   5  321.60   31.66
  -7   6   5  319.08   30.30
  -7   6  -5  290.73   18.92
  -7  -6  -5  302.68   19.35
  -7  -6   5  306.23   22.76
  -7  -6  -5  328.96   22.74
   7   6   5  329.54   29.94
   7   6   6   57.01   12.49
   7  -6  -6   66.65   10.25
  -7  -6   6   48.73    9.44
  -7  -6  -6   67.85   10.12
  -7   6  -6   77.22    7.65
   7   6   6   95.84   16.99
  -7   6   6   61.65   13.60
  -7  -6  -6   78.43    7.81
   7   6   7  207.09   23.10
   7  -6  -7  251.97   19.56
   7   6  -7  240.68   26.60
  -7   6  -7  212.41   15.35
  -7  -6  -7  204.66   15.27
   7   6   7  175.04   24.71
  -7   6   7  234.67   26.69
  -7  -6   7  236.50   19.89
  -7  -6  -7  209.39   18.67
   7   6   8   26.46   10.12
   7  -6  -8   18.68    6.74
  -7   6   8    8.92    8.65
  -7  -6   8   14.74    6.95
  -7  -6  -8   10.31    6.49
   7   6  -8   20.66   10.21
  -7   6  -8   13.66    4.38
  -7  -6  -8   20.77    5.06
   7   6   9  215.84   26.86
   7  -6  -9  196.52   18.35
   7   6  -9  199.73   25.79
  -7   6  -9  229.75   16.28
  -7  -6  -9  241.25   16.38
  -7  -6  -9  175.29   18.96
   7   6 -10   11.27    8.82
  -7   6 -10    4.50    4.45
  -7  -6 -10    3.92    3.91
  -7   6 -11  316.60   20.73
  -7  -6 -11  275.62   19.79
   7  -6 -12   23.45    7.47
   7   6 -12   36.00   12.71
  -7   6 -12   20.11    6.04
  -7  -6 -12   15.67    5.44
  -7   6 -12   19.76   13.28
   7  -6 -13   31.81    8.10
   7   6 -13   46.63   13.82
  -7   6 -13   49.84    8.03
  -7  -6 -13   53.80    7.77
  -7   6 -14   16.03    6.00
   7  -6 -14   24.75    7.62
  -7  -6 -14   16.12    5.62
   7  -6 -15  102.24   11.27
  -7  -6 -15   63.94    8.62
   7  -6 -16    5.92    5.17
  -7  -6 -16    8.98    4.79
   7  -6 -17  141.91   12.35
  -7   6 -17  171.02   13.51
   7   6 -17  137.99   11.11
  -7  -6 -17  170.77   12.87
   7  -6 -18    8.64    3.83
  -7   6 -18    2.12    4.44
   7   6 -18    8.09    3.20
  -7  -6 -18    6.87    4.06
   7  -6 -19   37.27    4.29
  -7   6 -19   49.67    6.46
  -7  -6 -19   59.18    6.31
  -7   6 -20    8.15    3.28
  -7   6 -21    5.82    2.13
   8  -6   0  511.18   31.63
  -8  -6   0  464.73   31.60
   8  -6  -1  118.55   13.21
  -8  -6   1  139.00   13.99
   8   6   2  143.72   21.89
  -8  -6   2  122.10   13.36
  -8  -6  -2  118.52   13.01
   8   6   3   61.22   14.14
   8   6   3   29.43    9.08
  -8   6   3   42.26   10.25
  -8  -6   3   47.06    9.04
  -8  -6  -3   39.78    8.25
   8  -6  -4  214.96   19.93
   8   6   4  230.61   25.62
  -8   6   4  246.69   25.19
  -8  -6   4  256.81   20.83
  -8  -6  -4  240.56   20.03
   8   6   4  271.32   28.55
  -8   6   5  147.29   19.51
   8  -6  -5  131.11   15.64
  -8   6  -5  178.59   12.40
  -8  -6  -5  140.95   11.84
  -8  -6   5  154.86   16.60
  -8  -6  -5  153.61   15.95
   8  -6  -6  115.56   14.04
  -8   6   6  140.30   18.87
  -8   6  -6   99.19    9.78
  -8  -6  -6  121.46   10.53
  -8  -6   6  136.38   15.27
  -8  -6  -6  121.13   14.10
   8   6   6  126.78   18.60
   8   6   7  177.63   21.43
   8  -6  -7  154.15   16.11
   8   6  -7  179.65   23.76
  -8   6   7  147.12   20.17
  -8   6  -7  171.01   12.75
  -8  -6  -7  158.24   12.66
  -8  -6   7  134.39   16.45
  -8  -6  -7  129.76   16.00
   8  -6  -8  159.22   16.04
   8   6  -8  194.26   25.03
  -8   6  -8  147.60   12.60
  -8   6   8  155.90   21.18
  -8  -6  -8  163.45   12.95
  -8  -6   8  150.26   17.24
  -8  -6  -8  146.75   17.06
  -8   6   9   24.11   10.46
   8  -6  -9   32.27    8.86
  -8  -6  -9   18.45    8.11
  -8   6  -9   25.28    5.80
  -8  -6  -9   29.56    5.91
   8   6 -10  168.57   24.92
  -8   6 -10  203.45   15.53
  -8  -6 -10  207.19   15.65
  -8   6  10  177.53   23.68
  -8   6 -11   72.77    8.70
   8   6 -11   43.67   13.91
  -8  -6 -11   69.60    8.64
  -8   6 -11   44.48   18.35
   8  -6 -12  102.55   12.74
  -8   6 -12   92.42   10.10
   8   6 -12   78.10   17.20
  -8  -6 -12   94.45   10.07
  -8   6 -12  101.93   22.93
   8  -6 -13   46.44    9.12
  -8   6 -13   44.87    7.56
  -8  -6 -13   47.17    7.60
  -8   6 -14  158.61   13.70
   8  -6 -14  180.42   15.59
  -8  -6 -14  130.49   12.55
   8  -6 -15   54.13    8.60
  -8   6 -15   45.09    8.05
  -8  -6 -15   27.91    6.29
   8  -6 -16    9.15    5.11
   8   6 -16   16.56    4.07
  -8  -6 -16    8.91    4.79
   8  -6 -17   12.73    4.54
   8   6 -17    8.59    3.35
  -8  -6 -17   13.54    4.52
   8  -6 -18   39.87    5.46
  -8   6 -18   45.92    6.38
  -8  -6 -18   45.59    5.99
  -8   6 -19   15.57    4.18
  -8   6 -20   22.98    3.77
   9  -6   0   99.34   12.43
  -9  -6   0  118.59   13.61
  -9  -6   1  419.58   30.17
  -9  -6   2   36.48    8.58
  -9  -6  -2   26.83    7.66
   9   6   3   92.47   18.75
  -9  -6   3  106.21   13.26
  -9  -6  -3   99.61   13.03
   9   6   4   20.77   10.10
  -9  -6   4   12.16    6.69
  -9  -6  -4   15.07    7.31
  -9   6  -5  140.40   11.46
  -9  -6   5  153.09   17.77
  -9  -6  -5  131.98   15.92
   9   6   5  186.38   23.40
   9   6   6  103.47   16.77
   9  -6  -6   78.47   12.55
  -9  -6   6   97.17   14.34
  -9  -6  -6   69.88   13.08
  -9   6  -6   88.96    8.89
   9  -6  -7  248.89   21.94
  -9   6  -7  228.19   16.93
  -9  -6  -7  267.38   17.81
  -9  -6   7  249.28   22.99
  -9  -6  -7  243.95   22.59
   9  -6  -8   10.49    7.26
  -9  -6   8    6.59    7.74
  -9  -6  -8    1.94    8.48
   9   6  -8   21.24   10.32
  -9   6  -8   14.25    4.87
  -9  -6  -8    8.64    4.08
   9  -6  -9  257.02   21.60
   9   6  -9  238.68   29.00
  -9   6  -9  222.65   16.76
  -9  -6  -9  255.39   17.58
  -9  -6  -9  198.46   20.25
  -9  -6 -10   42.80    9.01
   9  -6 -10   51.54   10.26
  -9  -6 -10   44.51    6.74
   9   6 -10   47.47   14.22
  -9   6 -10   42.23    7.10
  -9  -6 -10   44.75    7.32
   9   6 -11  308.48   36.21
  -9   6 -11  416.28   25.83
  -9  -6 -11  414.42   25.76
  -9   6 -11  345.97   44.74
  -9   6 -12   23.04    6.29
  -9  -6 -12   23.65    6.01
   9  -6 -13  281.56   21.16
  -9   6 -13  274.50   19.24
  -9  -6 -13  243.43   18.41
   9  -6 -14    7.51    5.97
  -9   6 -14    6.11    5.03
  -9  -6 -14    6.26    4.39
  -9   6 -15   47.41    7.45
  -9  -6 -15   38.63    6.71
   9  -6 -15   54.29    8.48
   9  -6 -16    8.44    4.73
  -9   6 -16    8.15    4.80
   9   6 -16    8.65    3.24
  -9  -6 -16   13.84    4.61
   9  -6 -17   14.75    4.46
   9  -6 -18   -0.25    2.67
  -9   6 -19   91.90    7.87
  -9   6 -20    1.52    1.91
 -10  -6   0 1293.13   75.63
 -10  -6   1  132.89   16.74
 -10  -6   2   -1.03    8.04
 -10  -6   3  372.81   29.45
 -10  -6  -3  308.09   27.59
  10   6   4  119.41   20.38
 -10  -6   4   80.31   14.59
 -10  -6  -4  126.75   16.02
  10   6   5   99.76   17.87
 -10  -6   5   75.33   13.49
 -10  -6  -5   54.99   12.10
 -10   6  -5   75.38    7.93
  10   6   6   13.30    9.13
 -10  -6   6   20.97    9.82
 -10  -6  -6   20.59    9.85
 -10   6  -6   23.67    5.01
  10  -6  -7  278.57   23.18
 -10   6  -7  232.94   16.93
 -10  -6   7  248.34   23.03
 -10  -6  -7  206.42   21.97
  10  -6  -8 1272.59   70.01
  10   6  -8 1244.89   82.01
 -10   6  -8 1111.03   63.27
 -10  -6   8 1244.40   68.98
 -10  -6  -8 1190.01   69.02
  10  -6  -9  179.70   18.07
 -10  -6  -9  163.24   13.95
 -10   6  -9  187.69   14.16
  10   6  -9  117.79   21.56
 -10  -6   9  189.26   16.78
 -10  -6  -9  121.44   15.37
  10  -6 -10  143.15   15.76
 -10  -6 -10  131.41   11.69
 -10   6 -10  149.24   12.72
  10   6 -10  131.23   22.74
 -10  -6 -10  138.66   13.62
 -10   6 -10  187.16   32.87
 -10   6 -11  159.70   13.65
 -10   6 -12   56.53    8.24
  10  -6 -13   76.62   10.53
 -10   6 -13   49.27    8.08
  10  -6 -14  137.21   13.11
 -10   6 -14  114.87   11.46
  10  -6 -15  104.81   11.06
 -10   6 -15  118.64   10.91
  10  -6 -16  126.77   11.15
 -10   6 -16  121.64   10.93
  10  -6 -17   56.49    6.61
 -10   6 -17   66.53    7.28
  10  -6 -18   73.67    6.04
 -11  -6   0  434.56   33.64
 -11  -6   1  229.91   22.79
 -11  -6   2  885.82   56.71
  11   6   3    6.58   10.00
 -11  -6   3    9.86    8.73
 -11  -6  -3    6.38    8.39
 -11  -6   4  432.06   33.81
 -11  -6  -4  393.33   32.55
  11   6   5   41.26   11.98
 -11  -6   5   27.98   10.09
 -11  -6  -5   18.34    9.58
 -11   6  -6  925.45   49.50
 -11  -6   6  943.08   56.51
 -11  -6  -6  825.91   55.11
  11  -6  -7  818.32   51.24
 -11   6  -7  796.81   44.83
 -11  -6   7  885.51   50.68
 -11  -6  -7  740.25   49.16
  11  -6  -8  399.70   30.91
 -11  -6  -8  445.90   27.77
  11   6  -8  374.18   39.46
 -11   6  -8  439.46   26.56
 -11  -6   8  500.10   30.65
 -11  -6  -8  350.66   28.56
 -11  -6   9   43.87    8.05
  11  -6  -9   57.79   10.92
 -11  -6  -9   48.38    8.54
 -11  -6  -9   51.77    7.79
  11   6  -9   39.86   13.21
 -11   6  -9   33.74    6.62
 -11   6  -9   69.45   21.75
  11  -6 -10  536.23   36.11
 -11  -6 -10  578.54   31.98
 -11   6 -10  564.30   32.68
 -11  -6 -10  492.03   32.02
  11  -6 -11   11.13    7.54
 -11   6 -11   15.55    5.02
 -11   6 -12  307.67   20.84
  11  -6 -13   50.44    8.78
 -11   6 -13   42.87    7.07
  11  -6 -14  181.15   15.17
 -11   6 -14  177.89   13.97
  11  -6 -15  280.08   18.94
 -11   6 -15  260.87   17.98
 -11   6 -16  176.80   12.67
  11  -6 -16  158.48   12.31
  11  -6 -17   44.41    5.24
 -11   6 -17   46.42    5.72
 -11   6 -18   90.12    7.35
 -12  -6   0   28.33   10.01
 -12  -6   1  336.21   28.36
 -12  -6   2  358.07   29.44
  12   6   2  334.89   37.59
 -12  -6   3  256.80   23.10
  12   6   3  262.10   30.04
 -12  -6   4  305.68   25.48
 -12  -6  -4  273.00   24.45
  12   6   4  317.47   32.66
 -12  -6   5  426.90   31.99
 -12  -6  -5  439.51   32.01
  12  -6  -6  515.93   35.55
 -12  -6   6  460.64   32.81
 -12  -6  -6  456.45   32.79
  12  -6  -7  242.45   21.92
 -12  -6  -7  253.02   18.80
 -12   6  -7  212.01   16.38
 -12  -6   7  273.74   20.69
 -12  -6  -7  216.34   19.53
 -12  -6  -8  105.12   10.86
 -12   6  -8   88.85    9.80
 -12  -6   8   96.31   11.30
 -12  -6  -8  103.92   12.00
  12  -6  -9  227.52   21.17
 -12  -6  -9  253.75   18.10
 -12   6  -9  263.26   18.19
 -12  -6   9  276.98   18.69
 -12  -6  -9  250.74   18.63
  12  -6 -10    4.54    6.99
 -12  -6 -10    3.18    3.73
 -12   6 -10    4.13    4.43
  12  -6 -11  203.33   17.72
 -12  -6 -11  183.63   13.39
 -12   6 -11  215.03   15.37
 -12   6 -12   31.40    6.19
 -12   6 -13   60.20    7.60
  12  -6 -14  185.41   14.79
 -12   6 -14  184.91   13.72
  12  -6 -15   60.43    7.43
 -12   6 -15   60.91    7.16
  12  -6 -16    6.57    3.41
 -12   6 -16    6.74    3.23
 -12   6 -17   51.40    5.24
  12  -6 -17   44.72    4.49
  13  -6   0    1.43    5.26
 -13  -6   0    2.70    7.38
 -13  -6   1  242.08   22.14
  13   6   2   23.47   10.77
 -13  -6   2   37.42   10.09
  13   6   3    1.77    5.72
 -13  -6   3   20.62    7.83
 -13  -6  -3    6.74    7.05
 -13  -6   4   10.46    7.52
 -13  -6  -4   13.59    7.18
 -13  -6   5    3.75    7.03
 -13  -6  -5    2.21    6.56
 -13  -6   6   36.58    8.66
 -13  -6  -6   20.05    7.49
  13  -6  -6   34.47    9.52
 -13  -6  -6   24.74    7.25
  13  -6  -7  386.67   29.27
 -13  -6  -7  413.23   26.09
 -13   6  -7  350.88   23.84
 -13  -6   7  434.42   26.87
 -13  -6  -7  415.20   26.69
  13  -6  -8   18.75    7.88
 -13  -6  -8   15.96    5.49
 -13  -6  -8   11.18    5.32
 -13   6  -8    2.91    3.81
  13  -6  -9   16.50    7.84
 -13  -6  -9    8.13    4.58
 -13   6  -9   14.20    4.67
  13  -6 -10   12.31    6.52
 -13  -6 -10   11.89    4.03
 -13   6 -10    2.89    3.75
  13  -6 -11   13.55    6.39
 -13  -6 -11   15.96    3.76
 -13   6 -11   18.77    4.77
 -13   6 -12   19.72    4.99
 -13   6 -13   26.62    5.03
  13  -6 -14    9.98    4.85
 -13   6 -14    9.74    3.67
 -13   6 -15  151.42   10.86
  13  -6 -15  157.31   11.46
  13  -6 -16    6.78    2.61
 -13   6 -16    8.35    2.60
 -14  -6   0  580.25   37.53
  14  -6  -1  333.15   24.41
 -14  -6   1  325.00   24.78
  14  -6  -2   70.51   11.25
 -14  -6   2   62.83   10.84
  14  -6  -3  163.37   17.24
 -14  -6   3  177.18   16.36
 -14  -6  -3  173.77   16.33
 -14  -6   4    1.31    5.76
 -14  -6  -4    3.25    5.82
  14  -6  -4    4.31    6.43
  14  -6  -5  139.32   16.00
 -14  -6  -5  139.73   13.46
 -14  -6   5  171.30   14.77
 -14  -6  -5  134.72   13.51
  14  -6  -6  229.16   19.89
 -14  -6  -6  211.04   16.83
 -14  -6   6  246.41   17.84
 -14  -6  -6  209.63   17.01
  14  -6  -7  242.62   20.35
 -14  -6  -7  232.16   17.25
  14  -6  -8  285.14   22.72
 -14  -6  -8  304.36   19.88
  14  -6  -9   65.96    9.89
 -14  -6  -9   58.81    7.09
 -14   6  -9   44.74    6.35
  14  -6 -10   10.04    5.89
 -14  -6 -10   11.71    3.92
 -14   6 -10   13.68    4.18
 -14  -6 -11   71.82    6.53
 -14   6 -11   76.00    7.61
  14  -6 -12    0.46    4.40
 -14   6 -12   -1.20    2.98
 -14   6 -13   66.50    6.60
  14  -6 -14  306.01   17.44
 -14   6 -14  246.72   15.70
  14  -6 -15   22.41    3.71
 -15  -6   0  167.94   15.09
  15  -6  -1  493.92   32.90
 -15  -6   1  621.72   34.93
  15  -6  -2  122.75   13.26
 -15  -6   2  135.62   13.12
  15  -6  -3   82.25   10.36
 -15  -6   3   50.62    8.93
 -15  -6  -3   65.61    9.42
  15  -6  -4   79.42   10.99
 -15  -6  -4   73.52    9.58
 -15  -6  -4   66.30    8.94
  15  -6  -5  181.16   16.36
 -15  -6  -5  162.92   13.87
  15  -6  -6   94.69   11.82
 -15  -6  -6   99.91    9.96
  15  -6  -7  401.24   25.45
 -15  -6  -7  321.65   21.75
 -15  -6  -8   46.26    6.47
 -15  -6   8   38.37    5.86
  15  -6  -9  414.04   26.23
 -15  -6  -9  393.24   23.30
 -15  -6 -10   43.96    5.35
  15  -6 -10   83.47    9.00
  15  -6 -11    7.21    4.46
  15  -6 -12   14.48    4.49
  15  -6 -14   21.90    3.49
 -16  -6   0  958.47   52.64
  16  -6  -1    3.13    3.68
 -16  -6  -1    7.46    5.10
 -16  -6   1   10.24    5.59
  16  -6  -2  120.80   11.49
 -16  -6  -2  148.64   12.72
 -16  -6   2  148.62   12.49
  16  -6  -3    0.50    4.41
 -16  -6   3   10.05    4.92
  16  -6  -4  132.34   12.56
 -16  -6  -4  131.27   11.67
 -16  -6   4  137.11   11.66
  16  -6  -5    0.53    4.84
 -16  -6  -5    1.60    4.06
 -16  -6   5    4.15    3.84
  16  -6  -6  119.04   11.61
 -16  -6  -6  124.25   10.18
 -16  -6   6   91.98    8.94
  16  -6  -7    2.46    4.59
 -16  -6  -7   12.00    4.30
 -16  -6   7    6.46    3.51
  16  -6  -8  641.37   38.49
 -16  -6  -8  705.05   36.77
  16  -6  -9   26.47    5.74
 -16  -6  -9   19.53    3.80
  16  -6 -10    2.93    3.75
 -16  -6 -10    1.16    1.98
  16  -6 -11   16.93    4.10
  16  -6 -12   61.62    6.06
 -17  -6   0   63.37    7.55
 -17  -6  -1  263.10   17.96
 -17  -6   1  284.37   18.08
  17  -6  -2   73.35    7.78
 -17  -6  -2   99.63    9.13
  17  -6  -3   25.96    4.95
 -17  -6   3   33.69    5.43
  17  -6  -4   43.24    6.33
 -17  -6   4   57.33    6.23
  17  -6  -5   22.56    5.01
 -17  -6  -5   17.96    4.39
 -17  -6   5   15.79    3.87
  17  -6  -6   94.41    8.86
 -17  -6  -6  110.27    8.32
  17  -6  -7  362.97   22.02
 -17  -6  -7  397.01   21.06
 -17  -6   7  342.14   19.69
  17  -6  -8   33.19    5.30
 -17  -6  -8   42.23    4.53
  17  -6  -9   40.40    5.39
 -17  -6  -9   40.38    3.84
  17  -6 -10   64.15    6.17
  17  -6 -11    7.06    2.36
 -18  -6   0  129.49    9.81
 -18  -6  -1   48.20    5.76
 -18  -6   1   56.31    5.96
 -18  -6  -2   95.55    8.26
 -18  -6   2  108.57    8.25
 -18  -6   3   66.92    6.25
  18  -6  -4    4.18    2.53
 -18  -6   4    1.44    2.26
  18  -6  -5   51.31    5.30
 -18  -6  -5   61.80    5.67
 -18  -6   5   46.86    4.66
  18  -6  -6  120.88    9.70
 -18  -6  -6  180.46   10.14
  18  -6  -7   11.35    2.82
 -18  -6  -7   13.62    2.61
  18  -6  -8   73.57    5.88
 -19  -6   0    5.08    2.29
 -19  -6  -1  107.33    7.32
 -19  -6   1   92.84    7.06
 -19  -6  -2    6.71    2.47
 -19  -6   2    3.70    1.94
 -19  -6  -3    2.07    1.96
 -19  -6  -5    3.85    1.67
   0   7   0   -3.46    8.58
   0   7   1   71.11   14.77
   0   7   2   17.84    9.77
   0  -7  -3 1340.54   71.71
   0   7   3 1490.80   89.74
   0  -7  -4    1.35    3.57
   0   7   4    1.95    6.67
   0  -7  -5  367.61   23.53
   0   7   5  343.43   36.53
   0  -7  -6   15.99    4.80
   0   7   6   29.28   11.77
   0  -7  -7   56.41    7.38
   0   7  -7   28.66    8.76
   0  -7  -8   33.77    6.86
   0   7  -8   18.72    8.58
   0  -7  -9   67.10    8.05
   0   7  -9   69.43   14.34
   0  -7 -10   58.90    9.08
   0   7 -10   58.01   13.89
   0  -7 -11 1933.95  100.40
   0   7 -11 1823.17  112.91
   0  -7 -12   35.55    7.81
   0   7 -12   38.34   12.06
   0  -7 -13   24.62    6.66
   0   7 -13   22.22    6.24
   0  -7 -14   24.52    7.12
   0   7 -14   20.13    6.13
   0  -7 -15   56.78    8.44
   0   7 -15   53.12    8.39
   0  -7 -16   28.95    6.36
   0   7 -16   19.06    6.16
   0  -7 -17   92.47   10.00
   0   7 -17  128.82   11.44
   0   7 -18   19.16    5.59
   0   7 -19  398.23   23.89
   0   7 -20   -1.36    2.81
   0  -7 -20    0.60    2.99
   0   7 -21   14.35    2.68
   0  -7 -21   15.67    3.14
   1   7   0  100.77   16.90
   1   7   1  333.56   34.69
   1   7  -1  465.98   35.21
   1   7  -2 1273.30   77.39
  -1  -7  -2 1224.33   65.69
   1   7   2 1315.16   82.50
  -1  -7  -3  723.79   41.88
   1  -7  -3  749.84   42.06
   1   7   3  776.03   57.75
   1   7  -3  849.41   53.28
  -1  -7  -4  631.69   35.24
   1  -7  -4  569.31   34.77
   1   7   4  604.37   50.38
   1   7  -4  623.01   44.75
   1   7  -5   92.06   14.75
  -1  -7  -5  104.23   10.00
   1  -7  -5   91.87    9.74
   1   7   5   87.45   18.17
   1   7  -6  444.02   35.18
   1   7   6  405.21   42.04
  -1  -7  -6  478.14   28.23
   1  -7  -6  425.44   27.70
   1   7  -6  439.25   33.55
   1   7  -7  289.68   26.35
  -1  -7  -7  291.61   20.25
   1  -7  -7  280.31   19.96
  -1  -7   7  250.69   18.62
  -1  -7  -7  298.35   19.36
   1   7  -7  289.56   26.77
   1   7  -8  101.22   14.79
   1  -7  -8  103.51   11.18
  -1  -7  -8  105.64   10.20
   1   7  -8  102.24   16.00
  -1  -7  -9  404.26   26.19
   1   7  -9  547.00   39.76
  -1  -7 -10 1459.32   77.52
   1   7 -10 1382.22   89.06
   1  -7 -11  155.91   14.75
  -1  -7 -11  179.86   15.07
   1   7 -11  126.73   21.10
  -1  -7 -12  225.32   17.71
   1  -7 -12  229.88   18.15
   1   7 -12  173.34   24.98
   1  -7 -13  100.05   11.53
  -1   7 -13  111.14   11.03
   1   7 -13   81.28   18.30
  -1  -7 -13  102.95   11.52
  -1  -7 -14    4.06    5.52
   1  -7 -14    3.71    5.71
  -1   7 -14    6.71    5.58
   1   7 -14    2.64    4.81
   1   7 -14   -5.87    9.95
   1  -7 -15  310.25   20.83
  -1   7 -15  229.47   19.30
   1   7 -15  314.21   20.38
  -1  -7 -15  262.36   19.59
  -1  -7 -16    7.37    5.04
   1  -7 -16    6.78    4.80
  -1   7 -16    7.55    5.63
   1   7 -16    4.61    4.99
   1  -7 -17   38.58    6.62
  -1   7 -17   26.55    6.78
   1   7 -17   50.82    7.30
  -1   7 -18  412.07   25.50
   1   7 -18  409.21   25.20
  -1   7 -19   68.45    7.64
   1   7 -19   65.54    7.38
  -1  -7 -19   70.73    7.70
  -1   7 -20    6.48    3.26
   1   7 -20    7.20    3.02
  -1  -7 -20    3.57    3.22
   1  -7 -20    2.99    3.25
  -1   7 -21   13.22    2.68
  -1  -7 -21   10.18    2.86
   1  -7 -21   12.87    2.96
   2   7   0  307.79   31.18
  -2   7   0  311.28   31.12
   2   7   1   18.24    8.16
   2   7   1   20.92    9.11
  -2   7   1   13.92    7.17
  -2  -7  -1   11.30    3.50
   2   7   2 1304.99   79.55
   2  -7  -2 1256.06   67.74
  -2   7   2 1391.64   85.06
   2   7   2 1233.20   82.75
  -2  -7  -2 1283.71   67.84
   2   7  -2 1362.67   80.80
   2   7   3  771.21   55.83
  -2   7   3  743.32   55.06
   2  -7  -3  690.51   40.16
  -2  -7  -3  706.58   40.10
   2   7  -3  741.16   51.07
  -2  -7  -4  515.97   31.34
   2  -7  -4  512.11   31.42
  -2  -7   4  534.04   31.38
   2   7   4  536.25   45.56
  -2   7   4  587.92   47.14
   2   7  -4  583.32   42.07
  -2  -7  -5  601.30   34.72
  -2  -7   5  532.83   33.88
  -2  -7  -5  623.35   34.59
   2   7   5  697.13   53.11
  -2   7   5  616.68   50.43
   2   7  -5  645.52   45.25
   2  -7  -5  568.41   34.71
   2   7   6  439.03   42.03
  -2   7   6  411.85   40.97
  -2  -7  -6  445.41   26.48
   2  -7  -6  413.02   26.32
  -2  -7   6  347.35   24.71
  -2  -7  -6  443.86   25.81
   2   7  -6  406.62   32.14
   2   7  -6  403.03   34.30
  -2  -7  -7  326.27   21.75
   2  -7  -7  316.79   21.91
  -2  -7  -7  339.57   21.15
  -2  -7   7  276.33   20.33
   2   7  -7  332.02   28.99
   2   7  -7  309.36   28.95
   2  -7  -8  707.94   37.92
   2   7  -8  680.60   46.66
   2   7  -8  698.20   46.04
  -2  -7  -9  106.55   10.97
   2   7  -9  149.28   20.47
   2   7  -9  171.27   19.09
  -2  -7 -10  531.07   33.62
   2   7 -10  599.10   46.33
   2  -7 -11  349.18   24.26
  -2  -7 -11  346.79   23.54
   2   7 -11  292.18   32.59
  -2   7 -11  330.71   22.18
  -2  -7 -12   78.70    9.91
   2  -7 -12   71.25   10.28
   2   7 -12   58.59   14.53
  -2  -7 -13   46.78    8.04
   2  -7 -13   32.12    7.98
   2   7 -13   37.20   13.31
  -2  -7 -14  436.12   28.48
   2  -7 -14  504.88   30.09
  -2   7 -14  423.90   28.37
   2   7 -14  392.65   40.04
  -2  -7 -15  202.57   16.05
   2  -7 -15  206.15   17.01
  -2   7 -15  193.36   16.35
   2   7 -15  215.62   16.15
   2   7 -16  177.40   13.44
   2  -7 -16  155.90   13.50
   2  -7 -17  174.64   14.71
   2   7 -17  199.16   15.28
   2  -7 -18   69.12    7.61
  -2   7 -18   74.44    8.61
   2   7 -18   79.97    8.23
  -2  -7 -18   60.52    7.83
  -2   7 -19   28.20    5.52
   2   7 -19   29.17    5.11
  -2  -7 -19   21.60    4.99
  -2   7 -20   41.88    5.36
  -2  -7 -20   31.77    5.00
  -2   7 -21   11.47    2.61
  -2  -7 -21    7.73    2.67
   2  -7 -21    7.63    2.47
   3   7   0   11.87    7.75
   3   7   0   12.46    8.60
  -3   7   0    1.77    8.33
  -3  -7   0    8.58    4.00
  -3  -7  -1  192.10   14.29
  -3  -7   1  188.92   14.53
   3   7   1  232.55   26.02
  -3   7   1  180.35   23.38
   3   7   1  185.44   22.01
   3   7   2  793.29   57.91
   3  -7  -2  701.23   41.62
  -3   7   2  867.93   58.64
  -3  -7  -2  739.44   41.93
  -3  -7  -2  744.31   41.80
  -3  -7   2  752.65   41.93
   3   7  -2  791.31   54.29
   3   7   2  744.64   52.92
   3   7   3  241.54   25.17
  -3  -7  -3  219.83   16.63
   3  -7  -3  279.60   17.81
  -3  -7   3  241.16   17.08
  -3  -7  -3  216.93   16.52
   3   7   3  212.61   26.54
  -3   7   3  298.30   30.30
   3   7  -3  231.58   25.60
  -3  -7  -4 1832.95   91.38
   3  -7  -4 1689.11   91.09
  -3  -7   4 1693.99   90.71
  -3  -7  -4 1752.03   90.87
   3   7   4 1829.51  109.60
  -3   7   4 1718.02  107.98
   3   7  -4 1878.39  105.36
  -3  -7  -5  295.19   19.41
  -3  -7   5  228.54   18.16
  -3  -7  -5  303.03   19.34
   3  -7  -5  260.67   19.31
   3   7   5  299.52   33.22
  -3   7   5  312.32   33.68
   3   7  -5  285.16   28.50
  -3  -7   6 1034.71   58.34
  -3  -7  -6 1059.41   58.48
   3  -7  -6 1068.45   59.56
   3   7  -6 1144.04   67.72
  -3  -7  -6 1142.61   59.37
   3   7   6 1146.98   78.78
  -3   7   6 1076.55   77.08
   3   7  -6 1073.90   70.22
  -3   7   7   65.59   16.89
  -3  -7  -7   79.86    9.60
  -3  -7   7   98.47    9.76
  -3  -7  -7   65.03    8.47
   3  -7  -7   80.96    9.69
   3   7  -7   94.38   15.27
   3   7   7   72.06   17.51
   3   7  -7  108.84   16.74
   3   7  -8    1.45    5.99
   3  -7  -8    9.18    5.10
  -3  -7   8   19.18    5.39
  -3  -7  -8   13.46    4.88
   3   7  -8   10.11    7.73
  -3  -7  -9  159.49   14.79
  -3  -7  -9  213.79   16.60
   3   7  -9  209.96   25.01
  -3   7  -9  184.87   14.42
   3  -7  -9  237.80   17.67
   3   7  -9  239.64   24.09
   3   7 -10   14.39    7.00
  -3  -7 -10    3.46    5.62
   3   7 -10   20.51   10.66
  -3   7 -10   12.33    4.76
  -3  -7 -11   80.43   10.02
  -3   7 -11   67.33    8.85
   3   7 -11   65.78   16.25
   3  -7 -11   85.94   10.90
   3  -7 -12  325.09   24.00
  -3   7 -12  343.82   23.00
   3   7 -12  334.08   35.13
  -3  -7 -12  331.15   23.28
  -3  -7 -13  141.08   12.99
   3  -7 -13  127.81   13.54
   3   7 -13  130.47   21.61
   3  -7 -14  547.79   34.59
   3  -7 -15  174.28   14.69
   3   7 -15  163.18   13.29
   3  -7 -16   13.99    5.76
  -3   7 -16    4.33    5.72
   3   7 -16   11.19    5.29
  -3  -7 -16    5.38    4.54
   3  -7 -17   43.95    7.18
   3   7 -17   53.74    7.29
  -3   7 -17   37.49    7.26
  -3  -7 -17   45.81    7.19
   3  -7 -18   60.64    7.01
  -3   7 -18   67.37    7.78
   3   7 -18   52.06    7.10
  -3  -7 -18   61.90    7.51
  -3   7 -19   15.87    4.56
   3   7 -19   21.08    4.42
  -3  -7 -19   15.92    4.54
  -3   7 -20    4.19    2.94
   3   7 -20    5.36    2.40
  -3  -7 -20    4.65    2.90
  -3   7 -21    4.74    2.14
  -3  -7 -21    4.11    2.08
   3  -7 -21    2.02    1.95
   4   7   0   19.26    9.03
  -4  -7   0   28.23    5.70
   4  -7  -1  238.10   16.92
  -4  -7   1  231.73   17.09
   4   7   1  263.29   28.50
  -4   7   1  259.72   28.68
   4   7   1  250.21   26.39
   4   7   2   49.40   12.15
  -4  -7   2   56.35    7.67
  -4  -7  -2   73.42    8.34
   4  -7  -2   58.05    7.63
   4   7   2   90.82   17.18
  -4   7   2   57.00   13.77
  -4  -7  -3   81.78    8.95
   4   7  -3  101.59   17.80
   4   7   3   72.82   14.39
  -4  -7   3   84.28    9.33
  -4  -7  -3   95.18    9.57
   4  -7  -3   76.83    8.86
   4   7   3   94.27   17.76
  -4   7   3   69.88   15.19
   4   7  -4   11.97    8.71
   4   7   4   15.65    9.71
  -4   7   4    9.49    8.09
  -4  -7  -4    8.63    4.02
   4   7   4   13.45    8.16
   4  -7  -4    5.30    4.28
  -4  -7   4    4.38    4.16
  -4  -7  -4    8.72    4.46
  -4   7  -4    5.31    2.79
   4   7  -5   39.37   11.45
   4  -7  -5   47.14    7.35
  -4  -7  -5   60.10    7.69
  -4  -7   5   49.03    7.49
  -4  -7  -5   41.02    6.97
  -4   7  -5   63.54    6.28
   4   7   5   51.92   14.19
   4   7  -5   33.96    8.79
  -4   7   5   52.30   13.94
   4   7  -6   27.21   10.11
  -4  -7  -6   31.44    6.25
  -4   7   6   23.38   11.39
   4  -7  -6   24.88    6.52
  -4  -7   6   21.77    5.61
  -4  -7  -6   17.32    5.30
   4   7  -6   22.63    8.29
  -4   7  -6   20.43    4.38
   4   7   6   19.83   10.69
  -4  -7   7  621.92   37.01
  -4  -7  -7  649.22   37.02
   4   7  -7  603.45   45.40
  -4   7  -7  617.10   34.93
   4  -7  -7  604.98   37.88
   4   7   7  566.26   53.33
  -4   7   7  586.33   52.45
   4   7  -7  674.85   49.46
  -4  -7   8   72.62    9.43
  -4  -7  -8   69.40    9.22
   4   7  -8   73.01   14.77
   4  -7  -8   72.10   10.03
   4   7   8   50.26   16.35
  -4   7  -8   85.86    8.40
   4   7  -8   81.55   14.95
  -4  -7  -8   83.49    8.21
  -4   7   8   94.53   20.97
   4   7  -9   37.21   11.00
  -4  -7  -9   37.29    7.15
   4  -7  -9   35.04    7.22
  -4  -7  -9   28.92    6.88
   4   7  -9   16.38   10.67
  -4   7  -9   41.46    6.52
   4   7 -10   43.67   11.67
  -4  -7 -10   71.87    9.43
   4   7 -10   61.33   15.47
  -4  -7 -11  125.06   12.49
  -4   7 -11  147.77   12.33
   4  -7 -12   21.80    7.23
   4   7 -12   19.40   10.40
  -4   7 -12   20.74    6.01
   4  -7 -13    4.83    5.66
   4   7 -13   -1.99    8.76
  -4   7 -13   -4.50    4.87
  -4  -7 -13    6.15    4.98
   4  -7 -14   13.80    6.37
  -4  -7 -14   11.26    4.98
   4  -7 -15  354.47   23.31
  -4  -7 -15  295.16   21.15
   4  -7 -16   57.16    8.84
  -4   7 -16   80.79    9.59
   4   7 -16   86.70    8.81
  -4  -7 -16   70.47    8.70
   4  -7 -17   96.39    9.94
  -4   7 -17  108.66   10.62
   4   7 -17   96.23    9.42
  -4  -7 -17  106.80   10.11
   4  -7 -18    4.73    3.62
  -4   7 -18    9.21    4.53
   4   7 -18    7.55    3.86
  -4  -7 -18    3.86    3.99
  -4   7 -19   26.83    5.00
   4   7 -19   14.44    3.82
  -4  -7 -19   23.76    4.55
  -4   7 -20    0.53    2.86
   4   7 -20    3.49    1.89
  -4  -7 -20    3.04    2.58
  -4   7 -21    8.30    2.26
  -4  -7 -21    9.37    2.12
   4  -7 -21    7.97    2.07
  -5  -7   0  409.59   25.80
   5   7   0  367.92   36.39
   5   7  -1   79.40   16.08
   5   7   1   93.24   17.02
  -5  -7   1   74.31    9.11
   5  -7  -1   73.83    8.76
  -5   7   1  100.11   17.24
   5  -7  -2  578.98   34.26
  -5  -7   2  554.52   34.02
   5   7   2  578.72   47.51
  -5   7   2  627.42   47.79
  -5  -7  -2  574.11   34.20
   5   7   2  535.79   44.76
   5   7  -3   54.19   14.54
   5   7   3   61.71   13.36
   5  -7  -3   50.89    7.96
  -5  -7   3   57.05    8.17
   5   7   3   62.40   14.86
  -5   7   3   74.40   15.29
  -5  -7  -3   61.07    8.30
  -5  -7   4  306.15   22.40
  -5  -7  -4  344.20   22.85
   5  -7  -4  338.32   23.45
   5   7   4  348.60   35.59
  -5   7   4  343.54   34.28
  -5   7  -4  349.41   20.48
   5   7  -4  388.07   36.97
   5   7   4  321.03   31.15
   5   7  -5   13.74    9.80
   5   7   5    6.18    6.67
   5  -7  -5   26.63    6.70
   5   7   5   47.34   13.29
  -5   7   5   31.25   11.81
  -5  -7   5   30.18    6.45
  -5  -7  -5   24.64    6.08
   5   7  -5   28.78    8.61
  -5   7  -5   21.23    4.31
   5   7  -6   38.88   12.78
   5  -7  -6   19.46    6.29
  -5  -7   6   18.58    5.93
  -5  -7  -6   38.51    7.17
   5   7  -6   32.80    9.69
   5   7   6   32.67   11.97
  -5   7   6   24.77   10.85
  -5   7  -6   37.27    5.32
   5   7   7   11.44   10.09
   5   7  -7    1.90    8.09
  -5   7   7    8.70    8.21
  -5  -7   7    9.74    5.55
  -5  -7  -7    4.73    4.82
   5   7  -7    2.96    6.07
   5  -7  -7    9.44    5.16
  -5   7  -7    8.46    3.71
  -5  -7  -7    7.31    3.15
   5   7  -8   62.30   14.42
   5  -7  -8   73.90    9.86
  -5  -7   8   69.99    9.58
  -5  -7  -8   51.07    8.53
  -5   7  -8   48.26    6.99
   5   7  -8   69.97   14.30
   5   7   8   38.36   15.20
  -5   7   8   57.44   16.15
  -5  -7  -8   61.15    7.21
   5   7  -9   73.24   15.19
   5   7   9   29.98   12.96
   5  -7  -9   52.28    9.27
  -5   7   9   58.22   16.05
  -5  -7  -9   46.42    8.67
   5   7  -9   51.02   13.36
  -5   7  -9   50.07    7.07
  -5  -7  -9   58.98    7.21
   5  -7 -10  520.25   35.56
   5   7 -10  492.43   45.02
  -5  -7 -10  578.84   33.24
   5   7 -10  467.36   42.69
   5   7 -11   13.21   10.33
  -5   7 -11   11.05    5.30
  -5  -7 -11   20.42    5.44
   5  -7 -12  155.25   15.88
  -5   7 -12  206.12   15.52
   5   7 -12  150.36   23.33
  -5  -7 -12  185.04   14.50
   5  -7 -13   22.40    7.49
  -5   7 -13   31.35    6.91
  -5  -7 -13   30.37    6.16
   5  -7 -14   88.53   11.10
  -5   7 -14   73.93    9.72
  -5  -7 -14   71.64    8.87
   5  -7 -15   29.55    7.42
  -5  -7 -15   21.80    5.61
   5  -7 -16   40.71    7.18
   5   7 -16   27.65    5.82
  -5  -7 -16   43.33    6.75
   5  -7 -17   11.69    4.48
  -5   7 -17   10.01    4.99
   5   7 -17    7.34    4.24
  -5  -7 -17    8.29    4.08
  -5   7 -18  152.03   11.90
   5   7 -18  133.03   10.53
  -5  -7 -18  155.94   11.51
   5  -7 -18  136.27   10.84
   5  -7 -19    4.91    2.25
  -5   7 -19   13.25    4.12
   5   7 -19    5.93    3.04
  -5  -7 -19    3.01    3.17
  -5   7 -20   15.72    3.32
  -5  -7 -20   17.12    3.34
   6   7   0    2.04    7.35
  -6  -7   0    8.02    5.34
   6   7  -1   59.64   15.26
   6   7   1   52.60   13.26
   6  -7  -1   34.56    6.54
  -6  -7   1   42.04    7.56
  -6  -7   2  496.84   29.89
  -6  -7  -2  436.63   29.00
   6  -7  -2  472.03   29.67
   6   7   2  397.05   39.04
  -6   7   2  461.29   40.37
   6   7   2  431.64   40.28
  -6  -7   3 1374.23   77.34
  -6  -7  -3 1485.47   77.73
   6  -7  -3 1407.72   77.96
   6   7   3 1585.15   94.42
  -6   7   3 1476.77   91.61
   6   7   3 1476.15   91.63
  -6  -7   4  231.59   18.83
  -6  -7  -4  272.02   19.35
   6   7   4  329.36   32.78
  -6   7   4  256.28   28.95
   6  -7  -4  218.38   19.10
   6   7  -4  266.61   33.19
   6   7   4  243.57   27.50
  -6  -7   5  223.69   18.46
   6   7   5  221.42   26.15
  -6  -7  -5  256.91   19.03
   6  -7  -5  238.94   19.56
   6   7   5  263.04   30.36
  -6   7   5  219.85   27.45
   6   7  -5  203.41   23.82
  -6   7  -5  243.76   15.98
   6   7  -5  224.99   30.58
   6   7  -6   24.84   12.11
   6  -7  -6   21.04    6.71
   6   7   6   16.94   10.00
  -6   7   6   27.58   10.09
  -6  -7   6   17.98    6.41
  -6  -7  -6   29.57    6.96
   6   7  -6   26.76    9.19
  -6   7  -6   29.23    5.06
   6   7  -7   83.11   18.12
   6  -7  -7   45.40    8.95
  -6  -7   7   51.43    9.13
  -6  -7  -7   46.60    8.79
  -6   7  -7   51.83    6.84
   6   7   7   72.77   16.83
  -6   7   7   49.64   13.75
   6   7  -7   45.95   11.95
  -6  -7  -7   54.55    6.77
   6  -7  -8  465.43   31.64
   6   7  -8  467.83   40.46
  -6   7  -8  458.98   27.83
   6   7   8  380.74   41.75
  -6   7   8  503.72   45.06
  -6  -7  -8  462.53   27.68
  -6  -7   8  480.30   31.66
  -6  -7  -8  454.77   30.93
   6   7  -8  423.95   42.27
   6   7  -9    5.87    9.49
   6  -7  -9   20.63    7.33
   6   7   9   11.49    8.72
  -6   7   9   27.00   11.77
  -6  -7  -9   19.27    7.18
   6   7  -9   24.78   10.31
  -6   7  -9   21.54    5.50
  -6  -7  -9   19.45    5.07
   6   7 -10   72.07   15.23
   6  -7 -10   55.81   10.06
  -6  -7 -10   47.52    9.77
   6   7 -10   46.29   13.84
  -6   7 -10   39.59    7.35
   6   7  10   34.40   13.74
  -6  -7 -10   44.88    7.00
  -6   7  10   48.90   14.20
  -6   7  11 1307.89   97.22
   6   7 -11 1364.28   93.52
  -6   7 -11 1574.68   79.07
  -6  -7 -11 1507.13   78.28
   6   7  11 1347.86   96.80
  -6   7 -12   74.11    8.84
   6   7 -12   37.13   13.25
   6   7  12   44.93   14.24
  -6  -7 -12   50.81    7.41
  -6   7  12   64.80   17.05
   6  -7 -13   11.96    6.88
  -6   7 -13   16.83    6.13
  -6  -7 -13   16.48    5.17
   6  -7 -14  146.72   13.99
  -6   7 -14  129.02   12.23
  -6  -7 -14  117.19   11.44
   6  -7 -15   72.59    9.95
  -6   7 -15   73.10    9.16
  -6  -7 -15   66.57    8.39
   6  -7 -16   22.90    6.22
   6   7 -16   24.22    5.35
  -6  -7 -16   19.85    5.21
   6  -7 -17   62.66    7.55
   6   7 -17   44.03    6.11
  -6  -7 -17   63.58    7.07
   6  -7 -18    8.04    3.66
  -6   7 -18   12.69    4.55
   6   7 -18    9.31    3.50
  -6  -7 -18    5.34    3.70
  -6   7 -19  241.23   13.96
  -6  -7 -19  234.05   13.27
  -6   7 -20   41.17    4.62
   7   7   0  504.19   48.32
  -7  -7   0  534.68   33.80
   7  -7  -1  425.19   28.36
   7   7  -1  393.63   43.16
   7   7   1  453.75   43.03
  -7  -7   1  435.91   28.88
   7  -7  -2  680.51   41.23
   7   7  -2  682.01   59.42
   7   7   2  661.36   54.26
  -7  -7   2  680.72   40.93
  -7  -7  -2  645.07   40.44
   7  -7  -3 1239.07   72.35
   7   7   3 1393.71   86.74
  -7   7   3 1411.39   85.17
   7   7   3 1271.57   85.78
  -7  -7   3 1299.74   71.84
  -7  -7  -3 1299.66   71.70
   7  -7  -4  335.74   26.20
   7   7   4  456.07   39.04
  -7   7   4  342.07   34.58
   7   7  -4  397.85   43.09
  -7  -7   4  350.37   25.63
  -7  -7  -4  362.05   25.63
   7   7   4  394.20   36.61
   7   7   5  203.80   25.91
  -7   7   5  202.08   24.77
   7  -7  -5  167.94   17.19
   7   7  -5  150.32   21.10
  -7   7  -5  197.59   13.66
  -7  -7   5  163.22   16.63
  -7  -7  -5  178.31   16.54
   7   7   5  221.75   25.45
   7   7   6  199.22   24.44
   7  -7  -6  237.53   19.98
   7   7   6  240.83   29.27
  -7   7   6  220.54   26.71
   7   7  -6  202.69   24.86
  -7   7  -6  204.69   15.06
  -7  -7   6  240.30   19.83
  -7  -7  -6  195.00   18.45
   7  -7  -7  598.84   39.16
   7   7   7  646.52   52.23
  -7   7   7  617.13   50.28
   7   7  -7  506.49   45.77
  -7   7  -7  640.66   34.89
  -7  -7  -7  605.43   34.49
  -7  -7   7  610.47   39.37
  -7  -7  -7  571.63   38.39
   7   7  -7  511.05   52.27
   7  -7  -8  297.21   22.87
   7   7   8  234.16   29.91
  -7   7   8  227.46   29.16
   7   7  -8  265.40   30.00
  -7   7  -8  275.63   18.70
  -7  -7  -8  273.74   18.53
  -7  -7   8  268.22   23.15
  -7  -7  -8  273.35   22.89
   7   7  -8  253.93   33.00
   7  -7  -9  606.51   37.06
   7   7  -9  587.55   47.20
  -7   7  -9  537.84   32.25
   7   7   9  421.04   44.50
  -7   7   9  523.73   46.98
  -7  -7  -9  536.67   31.94
  -7  -7  -9  516.81   36.60
   7   7  -9  607.13   51.22
   7  -7 -10  876.62   50.94
   7   7 -10  879.09   63.05
  -7   7 -10  923.61   47.60
  -7   7  10  790.52   63.17
  -7  -7 -10  888.21   46.99
   7   7 -10  757.19   61.45
  -7   7 -11  150.13   12.65
   7   7 -11  123.44   21.18
  -7  -7 -11  135.32   12.18
  -7   7  11  118.64   20.82
  -7   7 -12   53.93    8.25
  -7  -7 -12   71.29    8.47
   7  -7 -13  346.74   25.25
  -7   7 -13  362.99   23.43
  -7  -7 -13  336.15   22.65
   7  -7 -14    1.91    5.68
  -7   7 -14   11.15    5.60
  -7  -7 -14   10.35    4.89
   7  -7 -15  235.45   18.22
  -7   7 -15  251.00   17.71
  -7  -7 -15  229.68   16.78
   7  -7 -16   16.30    5.42
  -7   7 -16    3.12    4.42
   7   7 -16   10.73    4.06
  -7  -7 -16    7.27    4.23
   7  -7 -17   28.62    5.62
   7   7 -17   31.58    4.87
  -7  -7 -17   25.91    5.07
   7   7 -18  204.29   13.23
  -7  -7 -18  241.24   14.60
   7  -7 -18  221.09   14.07
  -7   7 -19  143.97   10.32
  -7   7 -20    4.19    1.92
   8   7   0  306.00   39.43
  -8  -7   0  346.68   25.39
   8   7  -1  138.79   26.73
   8   7   1  109.62   23.10
   8  -7  -1  109.56   13.07
  -8  -7   1  152.14   14.97
   8  -7  -2 1308.08   73.26
   8   7  -2 1180.53   95.09
  -8  -7   2 1294.42   72.82
   8   7   2 1361.73   91.12
   8   7   3  106.29   19.89
   8  -7  -3   78.88   12.43
  -8  -7   3  122.51   14.06
  -8  -7  -3  108.81   13.55
  -8   7   4  704.89   52.55
   8  -7  -4  673.29   44.68
  -8  -7   4  710.61   44.24
  -8  -7  -4  682.54   43.59
   8   7   4  776.48   57.65
   8  -7  -5  171.49   18.07
   8   7  -5  141.57   21.41
  -8   7   5  209.82   24.63
  -8  -7   5  170.20   17.60
  -8  -7  -5  194.96   18.14
   8   7   5  197.33   25.50
   8  -7  -6  943.50   57.76
   8   7  -6  844.87   64.90
  -8   7  -6 1000.12   51.84
  -8  -7   6  894.95   57.14
  -8  -7  -6  940.76   57.19
  -8   7   6  921.23   65.80
  -8   7   7  563.38   46.38
   8  -7  -7  552.43   38.21
   8   7  -7  576.43   47.40
  -8   7  -7  582.13   33.09
  -8  -7  -7  563.76   32.96
  -8  -7   7  560.61   38.84
  -8  -7  -7  559.23   38.56
   8  -7  -8  754.56   48.12
   8   7  -8  755.24   58.20
  -8   7  -8  784.22   43.35
  -8  -7  -8  785.05   43.26
  -8  -7   8  768.43   49.42
  -8  -7  -8  746.47   48.89
   8   7  -9   38.60   14.15
   8  -7  -9   39.47    9.69
  -8  -7   9   28.47    9.29
  -8  -7  -9   34.28    9.55
   8   7  -9   56.73   14.26
  -8   7  -9   48.91    7.13
  -8  -7  -9   50.86    7.05
   8  -7 -10  517.49   33.03
   8   7 -10  436.19   41.66
  -8   7 -10  510.54   28.81
  -8  -7 -10  459.74   28.05
  -8  -7 -10  360.11   30.94
   8   7 -10  393.12   41.20
   8  -7 -11   57.05   10.52
  -8   7 -11   56.53    7.99
  -8  -7 -11   59.42    7.71
  -8   7 -12  418.28   26.36
  -8  -7 -12  410.18   25.97
   8  -7 -13    8.12    6.77
  -8   7 -13    6.44    5.05
  -8  -7 -13    6.07    4.42
   8  -7 -14  522.15   31.95
  -8   7 -14  481.55   30.04
  -8  -7 -14  494.83   29.70
   8  -7 -15  202.61   15.80
  -8   7 -15  194.25   14.84
  -8  -7 -15  181.85   13.93
   8  -7 -16  114.53   10.34
  -8   7 -16   89.00    9.36
   8   7 -16   94.50    8.21
  -8  -7 -16   94.15    8.80
   8  -7 -17   82.64    8.10
  -8   7 -17   97.04    8.69
   8   7 -17   78.64    6.95
   8  -7 -18  138.29    9.62
   9   7   0  109.46   24.35
  -9  -7   0  128.98   15.41
   9  -7  -1  792.94   49.44
  -9  -7   1  830.75   50.76
   9   7  -1  757.48   71.82
   9   7   1  878.92   70.79
   9  -7  -2  573.69   39.59
  -9  -7   2  585.87   39.70
   9   7   2  677.97   57.00
   9  -7  -3  787.70   50.33
  -9  -7   3  773.91   49.43
  -9  -7  -3  771.48   49.05
   9   7   3  832.48   64.73
   9  -7  -4  333.24   29.47
  -9  -7   4  388.64   29.73
  -9  -7  -4  393.19   29.66
   9  -7  -5  715.08   50.07
   9   7  -5  698.27   57.82
  -9  -7   5  823.64   51.30
  -9  -7  -5  803.94   50.55
   9   7   6 1042.27   69.49
   9  -7  -6  955.15   59.54
   9   7  -6  988.27   69.17
  -9   7  -6 1008.96   52.53
  -9  -7   6  961.75   59.91
  -9  -7  -6  870.59   58.53
   9  -7  -7  831.88   50.83
   9   7  -7  732.92   58.89
  -9   7  -7  866.35   44.24
  -9  -7   7  703.66   49.90
  -9  -7  -7  704.79   49.60
   9  -7  -8   97.23   13.90
  -9  -7   8   92.48   14.21
  -9  -7  -8   73.25   13.33
  -9   7  -8   92.14    9.68
   9   7  -8  100.71   18.48
   9  -7  -9  419.19   28.98
   9   7  -9  393.89   37.62
  -9   7  -9  367.69   23.28
  -9  -7   9  331.32   26.84
  -9  -7  -9  318.52   27.16
   9   7  -9  351.40   41.06
   9  -7 -10   41.51    9.61
  -9  -7 -10   31.23    8.46
  -9   7 -10   28.00    5.96
   9  -7 -11  365.80   26.80
  -9   7 -11  373.67   23.71
  -9  -7 -11  354.97   23.35
  -9   7 -12   18.20    5.56
  -9  -7 -12   21.85    5.35
  -9   7 -13  350.03   22.79
   9  -7 -14  395.63   25.67
  -9   7 -14  366.09   23.86
   9  -7 -15  148.28   12.91
  -9   7 -15  137.44   11.69
   9  -7 -16   17.81    5.03
  -9   7 -16   11.84    4.44
   9   7 -16   17.19    3.65
   9  -7 -17   68.32    6.86
  -9   7 -17   75.25    7.15
   9   7 -17   54.29    5.17
  -9   7 -18    2.79    2.76
  10   7   0  191.26   33.02
 -10  -7   0  145.23   17.56
  10  -7  -1  578.52   37.17
 -10  -7   1  471.59   37.01
  10   7  -1  511.44   57.78
  10   7   1  584.13   57.25
  10   7   2  146.36   26.48
  10  -7  -2  165.42   18.22
 -10  -7   2  143.58   17.77
  10   7   3   -2.43    9.59
  10  -7  -3   -1.10    7.62
 -10  -7   3   16.12    8.56
 -10  -7  -3    2.10    7.64
  10  -7  -4  101.94   16.04
 -10  -7  -4  101.43   15.39
 -10  -7   4  122.51   16.90
  10   7   5   31.57   12.27
  10  -7  -5   34.75   10.64
 -10  -7   5   56.79   11.77
 -10  -7  -5   49.84   11.51
  10  -7  -6   70.09   13.22
 -10  -7   6   71.04   13.56
 -10  -7  -6   64.58   13.02
  10   7  -6   93.03   17.98
  10  -7  -7  779.62   50.13
  10   7  -7  787.41   59.82
 -10   7  -7  787.26   42.91
 -10  -7   7  800.98   50.23
 -10  -7  -7  700.74   48.62
  10  -7  -8   97.16   13.79
 -10  -7   8   70.25   12.23
 -10  -7  -8   90.53   13.33
 -10   7  -8   91.78    9.25
  10   7  -8   78.58   16.85
  10  -7  -9   51.19   10.68
 -10  -7   9   38.39    8.96
 -10  -7  -9   48.18    9.68
 -10  -7  -9   55.98    7.56
 -10   7  -9   56.62    7.11
  10  -7 -10   64.19   11.25
 -10  -7 -10   45.26    8.02
 -10   7 -10   49.82    7.47
  10  -7 -11   19.27    7.71
 -10   7 -11   10.88    4.39
 -10   7 -12   26.62    5.88
 -10   7 -13   68.53    7.75
  10  -7 -14   40.89    7.62
 -10   7 -14   41.39    6.24
  10  -7 -15  253.20   16.92
 -10   7 -15  213.29   15.44
  10  -7 -16   15.40    4.34
 -10   7 -16   11.49    3.78
  10   7 -16   10.42    2.70
  10  -7 -17   11.72    3.18
 -10   7 -17    9.20    2.96
 -10   7 -18   -0.76    1.90
 -11  -7   0  566.24   41.69
  11   7   0  726.73   65.59
  11   7  -1   36.39   18.26
  11  -7  -1   51.81   10.31
 -11  -7   1   61.25   13.57
  11   7   2   -2.64    8.49
  11  -7  -2   13.35    7.84
 -11  -7   2   -3.34    9.05
  11   7   3   -2.34    9.96
  11  -7  -3    5.61    8.08
 -11  -7   3   -1.10    9.23
 -11  -7  -3   10.82    8.44
  11  -7  -4   43.91   11.23
 -11  -7   4   44.10   12.20
 -11  -7  -4   33.86   11.39
  11   7   5   22.35   10.10
  11  -7  -5   53.37   12.52
 -11  -7   5   36.92   11.09
 -11  -7  -5   43.63   11.39
  11  -7  -6  120.99   16.58
 -11  -7   6  103.52   15.13
 -11  -7  -6  126.43   16.19
  11  -7  -7   21.15    8.84
 -11  -7   7   12.71    7.93
 -11  -7  -7   18.94    8.85
 -11   7  -7   16.05    4.40
  11  -7  -8  210.49   21.00
 -11  -7  -8  267.75   18.31
 -11   7  -8  221.34   16.38
 -11  -7   8  272.39   20.64
 -11  -7  -8  218.10   19.91
  11  -7  -9    5.92    6.74
 -11  -7   9    3.27    4.77
 -11  -7  -9   -0.59    5.13
 -11  -7  -9    6.05    4.27
 -11   7  -9    8.46    4.18
 -11  -7 -10   22.09    5.49
  11  -7 -10   18.39    7.39
 -11  -7 -10   27.64    5.08
 -11   7 -10   26.25    5.49
  11  -7 -11   26.83    8.15
 -11   7 -11   25.47    5.52
  11  -7 -12   15.92    6.57
 -11   7 -12   21.33    5.10
 -11   7 -13   15.88    4.64
  11  -7 -14  183.77   14.10
 -11   7 -14  168.28   12.64
  11  -7 -15    4.84    3.69
 -11   7 -15   -0.31    3.18
  11   7 -15    0.37    2.05
  11  -7 -16    4.20    3.15
 -11   7 -16    1.28    2.65
 -11   7 -17    0.94    1.75
  12   7   0    8.86   12.11
 -12  -7   0   -2.08    9.66
  12   7  -1   87.70   22.85
  12   7   1  126.93   23.47
  12  -7  -1   74.75   11.39
 -12  -7   1   86.12   14.80
  12   7  -2    7.02   10.63
  12   7   2   42.41   13.71
  12  -7  -2   29.27    9.19
 -12  -7   2   21.38    9.89
  12  -7  -3  237.99   24.02
 -12  -7   3  307.40   25.40
 -12  -7  -3  258.79   23.98
  12   7   3  270.96   31.96
  12  -7  -4   20.54    9.11
 -12  -7   4   27.28   10.32
 -12  -7  -4   21.59    9.55
  12  -7  -5   11.70    8.73
 -12  -7   5    3.47    7.27
 -12  -7  -5    8.69    8.39
  12  -7  -6   39.42   10.57
 -12  -7   6   20.31    8.26
 -12  -7  -6   31.47    9.06
  12  -7  -7   32.80    9.58
 -12  -7   7   43.57    8.53
 -12  -7  -7   33.49    8.04
 -12  -7  -7   34.39    7.42
  12  -7  -8   35.93    9.26
 -12  -7   8   28.66    6.83
 -12  -7  -8   27.41    6.92
 -12  -7  -8   21.97    5.71
 -12   7  -8   22.22    4.70
 -12  -7   9   42.20    6.65
 -12  -7  -9   45.59    7.02
  12  -7  -9   47.93    9.74
 -12  -7  -9   46.04    6.58
 -12   7  -9   38.17    6.01
  12  -7 -10    4.16    6.10
 -12  -7 -10   -0.31    3.35
 -12   7 -10    1.49    3.47
  12  -7 -11  297.99   21.56
 -12   7 -11  281.00   18.42
  12  -7 -12   38.26    7.62
 -12   7 -12   29.88    5.30
 -12   7 -13   45.93    5.97
  12  -7 -14   27.75    5.37
 -12   7 -14   26.63    4.38
  12  -7 -15    2.41    3.16
 -12   7 -15    2.30    2.40
  12  -7 -16   -0.82    2.16
 -13  -7   0  446.16   32.14
  13  -7  -1  326.09   22.20
 -13  -7   1  226.73   22.39
  13  -7  -2  129.15   14.96
 -13  -7   2  159.94   16.90
  13  -7  -3  178.81   18.51
 -13  -7   3  207.41   18.77
 -13  -7  -3  169.75   17.88
  13  -7  -4   26.81    8.70
 -13  -7   4   31.24    9.01
 -13  -7  -4   19.58    8.04
  13  -7  -5  142.31   17.40
 -13  -7   5  200.96   17.08
 -13  -7  -5  160.80   16.14
  13  -7  -6    0.88    7.14
 -13  -7   6    4.91    5.81
 -13  -7  -6   11.78    6.08
 -13  -7  -6   10.01    5.85
  13  -7  -7  206.53   19.74
 -13  -7  -7  229.81   16.84
 -13  -7   7  258.21   17.99
 -13  -7  -7  212.76   17.19
  13  -7  -8  245.73   20.05
 -13  -7  -8  225.99   16.11
 -13  -7  -8  225.48   16.52
  13  -7  -9   83.83   11.11
 -13  -7  -9   74.57    7.89
  13  -7 -10  172.34   14.51
 -13  -7 -10  143.30   10.40
 -13   7 -10  137.36   10.77
  13  -7 -11   89.23   10.33
 -13   7 -11  100.28    8.37
  13  -7 -12    0.91    4.36
 -13   7 -12    6.22    2.91
 -13   7 -13  129.76    9.24
  13  -7 -15   63.82    5.65
 -14  -7   0  468.63   31.43
 -14  -7   1  174.22   16.42
  14  -7  -2  339.32   24.03
 -14  -7   2  357.59   25.55
  14  -7  -3   28.73    7.76
 -14  -7   3   32.41    8.26
 -14  -7  -3   15.14    7.09
  14  -7  -4  218.32   18.72
 -14  -7   4  244.17   18.24
 -14  -7  -4  182.44   16.67
 -14  -7   5    5.88    5.51
 -14  -7  -5    8.52    5.35
  14  -7  -5    3.67    5.79
 -14  -7  -5    2.95    5.03
  14  -7  -6  454.85   30.75
 -14  -7  -6  455.76   27.85
 -14  -7   6  507.03   28.66
 -14  -7  -6  419.16   27.68
  14  -7  -7  376.51   25.31
 -14  -7  -7  327.71   21.52
  14  -7  -8  154.91   13.94
 -14  -7  -8  126.01   10.72
  14  -7  -9    3.84    5.15
 -14  -7  -9   -3.09    3.32
  14  -7 -10  138.08   12.07
 -14  -7 -10  119.80    8.61
  14  -7 -11    3.81    4.18
  14  -7 -12  175.57   12.91
 -15  -7   0  302.93   21.24
 -15  -7   1  116.65   11.97
  15  -7  -2  170.57   14.70
 -15  -7   2  281.75   17.72
 -15  -7   3   40.61    7.16
 -15  -7  -3   49.75    7.52
  15  -7  -3   37.36    6.85
 -15  -7  -3   38.85    7.47
 -15  -7  -4   33.18    6.48
  15  -7  -4   24.47    6.15
 -15  -7  -4   29.22    6.31
  15  -7  -5   89.94   10.97
 -15  -7  -5  130.36   10.63
  15  -7  -6  433.52   27.42
 -15  -7  -6  417.15   25.21
  15  -7  -7   99.25   10.58
 -15  -7  -7   94.36    8.72
  15  -7  -8  132.95   12.17
 -15  -7  -8  141.30   10.35
 -15  -7   8  155.53   10.68
  15  -7  -9   29.86    5.84
 -15  -7  -9   29.69    4.01
  15  -7 -10   25.86    5.38
  15  -7 -11   48.34    5.86
  15  -7 -12   11.40    3.32
 -16  -7   0    5.59    4.34
 -16  -7  -1  501.64   29.45
 -16  -7   1  502.39   29.49
 -16  -7   2   19.75    5.23
  16  -7  -3   15.45    4.03
 -16  -7   3   31.09    5.61
  16  -7  -4    8.93    3.93
 -16  -7  -4   15.96    4.32
 -16  -7   4    8.96    4.20
  16  -7  -5   69.35    7.73
 -16  -7  -5   76.69    7.45
 -16  -7   5   66.23    7.10
  16  -7  -6    8.90    4.38
 -16  -7  -6   12.00    3.72
 -16  -7   6    2.95    3.17
 -16  -7  -7  434.64   24.94
 -16  -7   7  476.48   24.83
  16  -7  -7  438.45   26.28
  16  -7  -8    4.90    3.53
 -16  -7  -8    2.68    2.40
  16  -7  -9   81.85    7.58
  16  -7 -10    0.25    2.41
  16  -7 -11   18.92    2.97
 -17  -7   0  438.23   25.18
 -17  -7  -1   82.85    7.75
 -17  -7   1   86.71    7.76
 -17  -7   2   79.69    7.48
 -17  -7   3  119.98    9.13
 -17  -7  -4    5.70    3.04
 -17  -7   4    2.15    3.02
  17  -7  -5   66.94    5.95
 -17  -7  -5   76.35    6.39
 -17  -7   5   58.01    5.64
  17  -7  -6  128.92    9.68
 -17  -7   6  143.95    9.15
  17  -7  -7   45.85    4.73
 -17  -7  -7   42.70    4.08
  17  -7  -8   91.36    6.76
 -18  -7   0   60.08    5.50
 -18  -7  -1   46.34    4.81
 -18  -7   1   50.55    4.90
 -18  -7  -2  163.69   11.00
 -18  -7   2  190.14   11.10
 -18  -7   3   27.74    3.35
 -18  -7  -4  109.63    7.47
 -18  -7  -5    7.85    1.94
   0  -8   0   78.39    8.63
   0  -8  -1    3.69    3.45
   0   8   1    2.16    9.20
   0  -8  -2  407.15   25.85
   0   8   2  433.92   41.69
   0  -8  -3   45.61    7.00
   0   8   3   67.77   17.21
   0   8   4 1125.59   81.37
   0  -8  -4 1119.23   61.18
   0  -8  -5   54.44    8.12
   0   8   5   80.52   18.32
   0  -8  -6 1185.01   64.77
   0   8   6 1172.93   87.16
   0  -8  -7    5.99    4.93
   0  -8   7    8.90    4.43
   0   8   7   11.91   10.72
   0  -8   8   63.13    8.13
   0  -8  -8   52.90    8.67
   0   8   8   81.95   21.94
   0  -8  -8   60.05    8.13
   0  -8  -9   18.54    5.95
   0  -8  -9   12.36    5.29
   0   8   9   10.89   13.08
   0  -8 -10   -4.92    5.28
   0   8  10    4.02   12.95
   0   8  11    8.83   12.31
   0  -8 -12  118.17   12.57
   0   8  12  104.52   30.14
   0  -8 -13   61.85    9.37
   0   8 -14  437.16   28.03
   0  -8 -14  453.22   28.96
   0  -8 -15   33.79    7.33
   0   8 -15   52.50    8.01
   0  -8 -16    5.62    4.83
   0   8 -16    0.94    4.76
   0   8 -17   28.92    6.06
   0   8 -18   26.46    5.10
   0  -8 -18   27.31    4.75
   0   8 -19    0.82    2.84
   0  -8 -19   -0.51    2.60
   0   8 -20    0.91    1.85
   0  -8 -20   -3.05    2.29
  -1  -8   0  482.67   28.83
   1  -8   0  469.95   28.53
   1  -8  -1  447.56   27.22
  -1  -8  -1  436.97   27.21
  -1  -8   1  445.64   26.96
   1   8   1  410.07   41.14
   1  -8  -2  113.74   10.51
   1   8   2   96.02   19.08
  -1  -8  -2   95.64    9.96
  -1  -8  -3   25.13    5.59
   1  -8  -3   16.77    5.19
   1   8   3    9.03    9.30
  -1  -8  -4  704.00   40.99
   1  -8  -4  694.00   40.97
   1   8   4  784.10   60.80
   1   8   5   27.57   12.18
  -1  -8  -5   34.92    6.74
   1  -8  -5   27.98    6.23
  -1  -8   5   24.35    6.30
  -1  -8  -6   33.53    6.96
   1  -8  -6   37.49    7.07
  -1  -8   6   26.90    6.38
   1   8   6   57.15   17.34
  -1  -8  -6   56.39    7.89
  -1  -8  -7  852.09   46.64
   1  -8  -7  786.97   46.23
  -1  -8   7  758.15   45.01
  -1  -8  -7  793.19   45.36
   1   8   7  812.83   69.49
  -1  -8  -8  471.23   29.99
   1  -8  -8  481.90   30.46
  -1  -8   8  516.55   29.53
  -1  -8  -8  438.25   28.68
   1  -8   8  418.76   28.30
   1   8   8  459.71   51.70
   1  -8  -9   20.99    6.96
  -1  -8  -9   16.26    5.71
   1  -8  -9   11.88    5.50
   1   8   9    7.21   13.61
  -1  -8 -10   45.47    7.42
   1  -8 -10   60.91    7.94
  -1  -8 -11   54.41    8.73
   1   8  11   47.86   21.19
  -1   8 -11   62.67    8.58
  -1  -8 -12  240.91   19.18
   1  -8 -12  233.32   19.17
  -1   8 -12  274.31   18.76
  -1  -8 -13   76.86   10.10
   1  -8 -13   69.59    9.98
   1   8 -13   65.58    8.80
  -1  -8 -14   26.96    7.00
   1  -8 -14   25.31    7.01
   1   8 -14   29.00    6.68
  -1  -8 -15  322.54   22.26
   1  -8 -15  342.65   22.91
  -1   8 -15  328.15   22.39
   1   8 -15  330.89   22.16
   1  -8 -16  142.08   12.07
  -1   8 -16  107.92   11.29
   1   8 -16  161.73   12.30
  -1  -8 -16  104.85   10.53
  -1   8 -17   33.08    6.19
   1   8 -17   39.60    6.23
  -1  -8 -17   30.95    5.47
  -1   8 -18    1.42    3.50
   1   8 -18    7.55    3.89
  -1  -8 -18    2.59    3.11
   1  -8 -18    1.31    3.06
  -1   8 -19   -0.28    2.73
   1   8 -19    2.88    2.89
  -1  -8 -19    0.25    2.40
   1  -8 -19    2.04    2.48
  -1   8 -20   15.98    2.83
   1   8 -20   17.36    2.63
  -1  -8 -20    7.79    2.38
   1  -8 -20    8.12    2.41
   2  -8   0 2105.66  110.48
  -2  -8   0 2242.38  112.23
   2   8  -1  428.63   38.25
  -2  -8  -1  408.91   26.95
   2  -8  -1  433.67   27.24
  -2  -8   1  489.20   28.76
   2   8   1  433.45   42.15
  -2   8   1  503.51   44.64
   2  -8  -2  110.14   10.71
  -2  -8   2  106.46   10.97
   2   8  -2  113.73   18.23
   2   8   2  135.84   22.06
  -2   8   2   78.48   17.77
  -2  -8  -2  104.69   10.65
   2   8  -3  336.97   31.78
   2   8   3  284.44   33.85
  -2   8   3  257.92   32.79
   2  -8  -3  294.03   20.83
  -2  -8  -3  298.43   21.12
  -2  -8   3  323.00   21.42
  -2  -8  -3  309.02   20.96
  -2  -8  -4   96.79   10.09
   2  -8  -4   82.34    9.85
  -2  -8   4   85.95    9.84
  -2  -8  -4   89.93   10.08
   2   8  -4   83.37   15.74
   2   8   4   92.29   18.92
  -2   8   4   58.68   15.90
   2   8  -5  259.18   27.72
  -2  -8  -5  265.49   19.26
   2  -8  -5  268.54   19.68
  -2  -8   5  264.03   19.13
  -2  -8  -5  266.54   19.25
   2   8   5  216.69   30.94
  -2   8   5  273.60   33.96
   2   8  -6  124.86   18.34
  -2  -8  -6  111.79   11.61
  -2  -8   6  113.39   11.44
  -2  -8  -6  114.12   11.55
   2  -8  -6  117.40   12.08
   2   8   6  128.63   24.07
  -2   8   6  111.07   22.20
  -2  -8  -7   69.71    9.02
  -2  -8  -7   69.85    9.04
   2  -8  -7   67.01    9.38
  -2  -8   7   63.38    8.83
   2   8   7   61.19   18.43
  -2   8   7   65.90   18.71
   2   8  -7   49.54   12.36
  -2  -8   8 1539.66   87.28
  -2  -8  -8 1699.37   87.95
  -2  -8  -8 1795.86   89.33
   2   8   8 1727.94  117.94
  -2   8   8 1694.69  116.84
   2  -8  -8 1649.26   89.07
  -2  -8  -9  331.69   24.95
   2  -8  -9  497.82   28.87
   2   8   9  461.80   51.68
  -2   8   9  372.20   47.21
   2  -8 -10    3.43    5.90
  -2  -8 -10    5.52    4.66
   2  -8 -10    7.28    4.46
  -2   8 -10    4.44    4.57
   2   8  10   -3.78   14.91
  -2   8  10    3.67   13.86
  -2  -8 -11   32.13    7.53
   2   8  11    4.07   13.20
  -2   8  11   47.29   20.12
  -2   8 -11   43.48    6.94
  -2  -8 -12   40.13    8.25
   2  -8 -12   43.59    8.81
  -2   8 -12   45.65    7.70
   2   8  12   59.83   21.84
  -2   8  12   33.17   17.77
  -2  -8 -13  278.05   20.18
   2  -8 -13  243.67   20.07
  -2   8 -13  270.37   19.48
   2  -8 -14  719.92   42.53
   2   8 -14  714.51   41.08
   2  -8 -15   48.34    8.18
   2   8 -15   66.15    8.20
  -2  -8 -15   43.55    6.94
   2  -8 -16  142.34   12.07
  -2   8 -16  126.47   11.53
   2   8 -16  119.30   11.06
  -2  -8 -16  111.98   10.64
  -2   8 -17  103.18   10.41
   2   8 -17  133.84   10.81
  -2  -8 -17  101.56    9.79
  -2   8 -18   -0.70    3.59
   2   8 -18    3.26    3.28
  -2  -8 -18    1.89    2.91
  -2   8 -19    2.19    2.77
   2   8 -19    2.45    2.56
  -2  -8 -19    3.90    2.53
   2  -8 -19    3.44    2.46
  -2   8 -20   61.80    5.39
   3  -8   0  664.94   39.07
  -3  -8   0  723.22   40.69
   3   8   1 1828.60  114.49
   3  -8  -1 1861.73   99.87
  -3  -8   1 1985.41  101.15
   3   8   1 2047.06  121.55
  -3   8   1 2134.68  122.30
   3   8  -2   58.04   13.99
  -3  -8  -2   71.23    8.86
   3  -8  -2   65.79    8.65
  -3  -8   2  103.33   10.29
   3   8   2   48.51   13.97
  -3   8   2   89.27   18.55
  -3   8   3  313.06   34.80
  -3  -8  -3  331.45   21.98
   3  -8  -3  318.00   21.95
  -3  -8   3  290.48   21.38
  -3  -8  -3  336.51   22.35
   3   8  -3  310.21   32.58
   3   8   3  310.39   35.08
   3   8  -4   75.71   15.55
  -3  -8  -4   60.40    8.58
   3  -8  -4   67.73    9.24
  -3  -8  -4   62.28    8.63
  -3  -8   4   76.91    9.20
   3   8   4   68.37   16.85
  -3   8   4   60.20   15.69
  -3  -8  -5  683.40   38.39
   3  -8  -5  612.48   38.36
  -3  -8   5  556.39   37.14
  -3  -8  -5  690.29   38.44
   3   8   5  677.29   57.04
  -3   8   5  675.37   56.41
   3   8  -5  672.28   50.77
   3   8  -6   81.76   15.66
  -3  -8  -6   79.17    9.35
  -3  -8  -6   76.75    9.29
   3  -8  -6   71.33    9.64
   3   8   6   57.71   16.65
  -3   8   6   46.10   15.19
  -3  -8   6   47.31    7.99
  -3  -8  -7 1516.06   78.71
  -3  -8   7 1424.81   77.90
  -3  -8  -7 1497.03   78.14
   3  -8  -7 1397.57   78.88
   3   8   7 1406.87  101.56
  -3   8   7 1344.34   99.96
  -3   8  -7 1478.66   76.00
   3   8  -7 1445.50   90.79
  -3  -8   8   76.74   10.07
   3   8  -8   72.08   14.59
  -3  -8  -8   76.80   10.38
  -3  -8  -8   66.09    9.68
  -3   8  -8   83.09    8.81
   3   8   8   57.73   18.66
  -3   8   8   88.45   21.53
   3  -8  -8   81.55   11.17
   3   8  -9 1482.67   98.35
  -3  -8  -9 1673.82   89.38
   3  -8  -9 1654.78   90.79
  -3   8  -9 1832.73   88.41
   3   8   9 1617.64  117.91
  -3   8   9 1591.92  116.55
  -3  -8 -10  114.85   12.34
   3  -8 -10  146.26   14.22
   3   8  10  145.88   28.78
  -3   8  10  124.55   26.85
  -3   8 -10  126.63   11.48
  -3  -8 -10  113.64   10.44
  -3  -8 -10   90.41   11.49
  -3   8  11   21.26   16.71
  -3   8 -11   42.06    7.22
  -3  -8 -11   39.67    8.06
  -3  -8 -11   35.52    6.05
  -3   8  12  117.04   27.29
  -3   8 -12  141.46   12.51
  -3  -8 -12  113.31   10.89
   3   8  12   96.63   25.35
   3  -8 -13 1092.29   62.15
  -3   8 -13 1172.91   61.14
  -3  -8 -13 1069.68   59.57
   3  -8 -14   26.72    7.46
  -3   8 -14   14.85    5.69
  -3  -8 -14   14.17    5.37
   3  -8 -15  473.64   29.04
   3   8 -15  456.23   27.62
  -3  -8 -15  431.09   27.14
   3  -8 -16   96.17    9.71
   3   8 -16  108.98    9.68
   3  -8 -17   93.00    9.09
  -3   8 -17  100.45    9.57
   3   8 -17   93.55    8.90
  -3  -8 -17   97.15    8.81
  -3   8 -18   10.51    4.01
   3   8 -18   22.14    4.31
  -3  -8 -18   14.89    3.94
  -3   8 -19    4.51    3.00
   3   8 -19   11.92    2.97
  -3  -8 -19   12.31    2.87
   3  -8 -19    7.35    2.68
  -3   8 -20    8.87    2.32
  -4  -8   0 2996.34  152.21
   4   8   0 2956.87  169.32
   4   8   1  138.34   21.64
  -4  -8   1  186.53   14.74
   4  -8  -1  133.95   12.79
   4   8   2  282.36   32.11
  -4  -8   2  344.20   23.37
   4  -8  -2  337.63   23.10
   4   8   2  341.43   37.01
  -4   8   2  402.56   38.80
   4   8  -2  335.20   35.00
   4   8  -3   33.86   12.25
   4  -8  -3   17.62    5.69
   4   8   3   22.55   10.32
  -4   8   3   17.52   10.02
  -4  -8   3   23.59    6.20
  -4  -8  -3   24.31    6.23
   4   8   4  420.23   43.44
  -4   8   4  413.33   42.28
   4  -8  -4  394.59   27.96
  -4  -8  -4  453.89   28.38
  -4  -8   4  443.10   28.25
  -4   8  -4  441.56   25.39
   4   8  -4  462.44   41.54
   4   8  -5    3.92    7.05
   4  -8  -5    2.61    4.87
  -4  -8   5    1.79    4.55
  -4  -8  -5    4.16    4.92
  -4   8  -5    3.29    3.09
   4   8   5    2.44    7.36
  -4   8   5   -2.36    7.10
  -4  -8   6  601.59   37.76
  -4  -8  -6  635.29   38.05
   4  -8  -6  654.73   39.24
   4   8   6  565.04   54.33
  -4   8   6  566.13   53.76
  -4   8  -6  657.31   35.68
   4   8  -6  580.35   49.84
   4   8  -7   44.36   12.75
   4  -8  -7   62.83    9.80
   4   8   7   43.12   15.88
  -4   8   7   44.08   15.85
  -4  -8   7   50.13    8.68
  -4  -8  -7   58.11    8.94
  -4  -8  -7   73.51    9.41
  -4   8  -7   58.69    7.27
  -4  -8   8 2134.58  112.37
  -4  -8  -8 2144.91  112.19
   4  -8  -8 2163.65  113.46
  -4   8  -8 2244.47  110.20
   4   8   8 1921.17  135.02
  -4   8   8 1926.20  134.30
   4   8  -8 2084.16  125.78
   4  -8  -9  208.41   18.60
  -4   8  -9  278.31   17.51
   4   8   9  230.99   34.46
  -4   8   9  235.43   34.30
  -4  -8  -9  204.25   15.42
  -4  -8  -9  212.59   18.10
   4   8  -9  197.90   24.72
   4  -8 -10   25.15    7.42
  -4  -8 -10   25.55    7.30
  -4   8 -10   24.80    6.09
  -4  -8 -10   24.43    5.32
   4   8  10   15.53   12.79
  -4   8  10    6.08   10.99
   4   8  11   88.22   22.22
  -4   8  11   69.00   20.94
  -4   8 -11   98.64   10.28
  -4  -8 -11   84.85    9.04
  -4   8 -12  242.31   17.84
  -4  -8 -12  223.10   16.48
   4  -8 -13   24.20    7.92
  -4   8 -13   29.99    7.00
  -4  -8 -13   29.18    5.96
   4  -8 -14  517.93   34.50
  -4   8 -14  616.04   34.38
  -4  -8 -14  556.31   32.83
   4  -8 -15   28.72    7.11
  -4   8 -15   23.90    6.21
   4   8 -15   38.20    6.29
  -4  -8 -15   18.46    5.18
   4  -8 -16  272.10   17.93
   4   8 -16  240.19   16.59
  -4  -8 -16  226.83   16.22
   4  -8 -17   62.01    7.10
   4   8 -17   53.75    6.59
  -4  -8 -17   55.92    6.50
   4  -8 -18    3.08    2.92
  -4   8 -18    1.95    3.33
   4   8 -18    5.76    3.10
  -4  -8 -18    8.31    3.16
  -4   8 -19    8.02    3.07
   4   8 -19    4.52    2.35
  -4  -8 -19    3.86    2.13
   5   8   0   74.50   16.90
  -5  -8   0   85.20   10.42
  -5  -8   1  415.88   27.23
   5  -8  -1  383.72   26.00
   5   8   1  428.15   40.42
  -5  -8   2  176.89   15.40
   5  -8  -2  168.54   15.01
  -5   8   2  207.03   27.04
   5   8   2  140.02   23.01
   5   8   3  139.40   21.46
   5   8  -3  152.83   23.90
  -5  -8  -3  147.23   14.09
   5  -8  -3  127.96   13.38
   5   8   3  138.50   23.28
  -5   8   3  177.38   24.72
  -5  -8   3  147.98   14.02
  -5  -8   4  304.08   22.60
   5  -8  -4  306.43   23.02
  -5  -8  -4  331.60   22.97
   5   8   4  355.65   37.59
  -5   8   4  288.85   33.73
   5   8  -4  327.44   35.97
   5   8  -5    8.84    8.75
   5  -8  -5   19.27    6.49
  -5  -8   5   17.57    6.66
  -5  -8  -5   12.88    6.18
  -5   8  -5   15.39    3.91
   5   8   5    7.16    9.04
  -5   8   5   27.12   10.63
  -5  -8   6  189.69   17.36
  -5  -8  -6  218.56   17.87
   5  -8  -6  205.81   18.09
   5   8   6  243.24   31.69
  -5   8   6  195.18   28.24
  -5   8  -6  225.68   15.30
   5   8  -6  174.25   26.27
  -5  -8  -7  786.62   47.26
   5  -8  -7  803.01   48.40
   5   8   7  770.58   65.02
  -5   8   7  726.17   63.02
  -5   8  -7  836.76   44.63
   5   8  -7  904.64   63.76
  -5  -8   7  765.56   47.21
   5  -8  -8  237.88   19.96
   5   8   8  237.32   33.05
  -5   8   8  205.29   30.05
  -5   8  -8  266.43   17.42
  -5  -8   8  200.04   18.75
  -5  -8  -8  270.62   20.14
   5   8  -8  172.73   25.81
   5   8  -9   44.80   12.48
   5  -8  -9   31.02    8.84
  -5  -8  -9   29.16    7.81
   5   8   9   10.78   11.14
  -5   8   9   21.05   13.79
  -5   8  -9   28.60    6.02
  -5  -8  -9   28.51    5.29
   5  -8 -10   44.58    9.45
  -5  -8 -10   35.69    8.55
   5   8  10   29.83   13.91
  -5   8  10   32.60   14.27
  -5   8 -10   32.92    6.47
  -5  -8 -10   36.13    5.99
   5  -8 -11   17.24    7.39
  -5   8 -11   21.36    5.94
   5   8  11    7.99    9.13
  -5   8  11   16.50   11.74
  -5  -8 -11   21.88    5.11
  -5   8 -12   29.40    6.59
  -5  -8 -12   29.20    5.75
   5  -8 -13   20.15    6.99
  -5   8 -13   24.82    6.25
  -5  -8 -13   17.67    4.97
   5  -8 -14    7.35    5.62
  -5   8 -14   13.41    5.04
  -5  -8 -14   20.40    5.09
  -5   8 -15  287.96   18.61
   5   8 -15  248.93   17.26
  -5  -8 -15  234.49   16.99
   5  -8 -15  271.53   19.25
   5  -8 -16   53.15    7.49
  -5   8 -16   66.08    7.57
   5   8 -16   52.96    6.60
  -5  -8 -16   40.26    6.02
   5  -8 -17   24.20    4.95
   5   8 -17   13.81    3.95
  -5  -8 -17   22.62    4.23
   5  -8 -18    1.17    2.70
   5   8 -18    6.22    2.74
  -5  -8 -18    2.98    2.57
  -5   8 -19    4.54    2.67
   6   8   0   26.36   12.00
  -6  -8   0   37.17    8.19
   6   8  -1   44.76   15.08
   6   8   1   22.96   11.54
   6  -8  -1   43.26    7.41
  -6  -8   1   37.95    8.08
   6   8   2    2.20    7.90
   6  -8  -2    1.33    4.59
  -6  -8   2    6.83    5.55
   6   8  -3   88.10   20.87
   6   8   3   56.45   14.41
   6   8   3   49.95   14.94
  -6   8   3   67.69   16.26
   6  -8  -3   63.88   10.21
  -6  -8   3   71.97   10.28
  -6  -8  -3   59.77    9.91
  -6  -8   4 2031.99  104.93
   6   8   4 1835.78  118.47
  -6  -8  -4 1974.38  104.68
   6  -8  -4 1964.19  105.43
   6   8   4 1971.51  123.24
  -6   8   4 1949.32  121.16
   6   8  -4 2011.33  127.28
   6   8  -5  104.03   21.63
   6  -8  -5   84.26   12.13
   6   8   5  127.33   22.62
  -6   8   5  105.27   19.76
  -6   8  -5  116.75    9.84
  -6  -8   5   91.91   12.15
  -6  -8  -5  119.21   13.00
   6   8  -6  156.67   25.32
  -6   8   6  154.34   23.69
   6  -8  -6  168.22   16.27
  -6   8  -6  148.03   12.02
   6   8   6  134.70   23.76
  -6  -8   6  132.50   14.99
  -6  -8  -6  148.60   15.08
   6   8  -7   27.79   11.87
   6  -8  -7   26.47    8.16
  -6  -8   7   28.97    7.99
  -6  -8  -7   20.33    7.30
  -6   8  -7   34.04    5.92
   6   8   7   40.88   13.75
  -6   8   7   31.80   12.20
   6   8   8   52.98   16.02
  -6   8   8   97.51   19.48
   6   8  -8   77.51   17.28
   6  -8  -8  105.05   12.86
  -6  -8   8   95.99   12.76
  -6   8  -8   74.38    8.79
  -6  -8  -8   91.05   12.27
   6   8  -9    9.83    8.08
   6   8   9    7.13    8.14
  -6   8   9   16.51   10.06
   6  -8  -9   11.44    7.46
  -6  -8   9   10.24    7.16
  -6  -8  -9   13.17    6.97
  -6   8  -9   11.09    4.62
  -6  -8  -9   13.46    4.18
   6  -8 -10  113.05   13.86
   6   8  10   83.08   17.99
  -6   8  10   78.73   18.55
  -6   8 -10  130.01   11.31
  -6  -8 -10  103.71   10.02
  -6  -8 -10  105.08   13.78
   6  -8 -11   10.69    6.86
  -6   8 -11   15.64    5.22
  -6  -8 -11    5.68    3.68
  -6   8 -12  304.57   20.47
  -6  -8 -12  280.70   19.28
  -6   8 -13   77.37    9.10
  -6  -8 -13   63.29    7.70
   6  -8 -14   62.39    9.33
  -6   8 -14   75.32    8.59
  -6  -8 -14   62.20    7.46
   6  -8 -15    7.21    5.39
  -6   8 -15   12.51    4.96
  -6  -8 -15    9.31    3.93
   6  -8 -16   15.25    4.82
  -6   8 -16    4.27    4.05
   6   8 -16   11.98    4.15
  -6  -8 -16   10.55    3.55
   6  -8 -17    7.10    3.66
  -6   8 -17    9.75    4.00
   6   8 -17   13.49    3.66
  -6  -8 -17    8.59    3.33
   6   8 -18   57.91    5.38
   6  -8 -18   60.82    5.45
   7   8   0  820.88   68.07
  -7  -8   0  828.62   49.61
   7   8  -1   11.51   11.36
   7   8   1    7.75    8.84
   7  -8  -1   12.50    5.79
  -7  -8   1   21.91    7.52
   7   8   2  131.03   23.52
   7  -8  -2  137.27   14.76
  -7  -8   2  163.97   15.64
   7  -8  -3  474.14   33.23
  -7  -8   3  538.20   33.90
  -7  -8  -3  474.67   32.63
   7   8   3  455.69   44.94
   7   8   4  638.09   52.21
   7  -8  -4  555.76   38.55
   7   8  -4  587.36   57.51
  -7  -8   4  588.25   38.27
  -7  -8  -4  612.21   38.43
   7  -8  -5  309.28   25.67
   7   8   5  355.95   37.17
  -7   8   5  308.49   34.38
  -7  -8   5  341.17   25.66
  -7  -8  -5  344.45   25.46
   7   8  -5  306.71   39.92
   7   8  -6  182.67   29.77
   7  -8  -6  175.32   18.42
  -7   8  -6  229.12   14.81
   7   8   6  236.53   29.44
  -7   8   6  161.26   24.41
  -7  -8   6  165.80   18.02
  -7  -8  -6  185.32   18.40
   7   8  -7   73.21   19.15
   7  -8  -7   89.17   12.83
  -7  -8  -7   91.74   13.05
  -7   8  -7  109.61    9.65
   7   8   7   80.69   19.62
  -7   8   7   84.61   18.33
  -7  -8   7  103.55   14.04
  -7   8   8  463.15   44.84
   7  -8  -8  522.30   35.54
  -7   8  -8  505.50   30.38
  -7  -8   8  535.04   36.33
  -7  -8  -8  530.88   35.80
   7   8  -8  479.37   47.72
   7   8  -9   57.69   15.25
   7  -8  -9   58.11   11.19
  -7  -8   9   77.38   12.73
  -7  -8  -9   69.55   11.84
  -7   8  -9   51.74    7.45
  -7  -8  -9   55.05    6.94
  -7   8   9   63.06   15.01
   7  -8 -10  100.33   12.93
  -7   8 -10   73.25    8.78
  -7  -8 -10   78.89    8.33
   7  -8 -11  269.49   21.77
  -7   8 -11  265.41   18.63
  -7  -8 -11  260.49   17.88
  -7   8 -12  316.98   20.03
  -7  -8 -12  254.50   18.24
  -7   8 -13   30.14    6.37
  -7  -8 -13   34.38    5.81
   7  -8 -14   98.44   10.96
  -7   8 -14   98.01    9.64
  -7  -8 -14   88.20    8.63
   7  -8 -15   69.89    9.03
  -7   8 -15   90.08    8.91
  -7  -8 -15   78.79    7.65
   7  -8 -16   52.14    6.90
   7   8 -16   45.67    5.52
  -7   8 -16   34.36    5.67
   7  -8 -17   93.82    8.18
  -7   8 -17   98.97    8.42
   7   8 -17   95.31    7.47
  -7   8 -18   56.44    5.50
  -8  -8   0  476.90   32.07
   8   8   0  348.82   46.17
   8  -8  -1  802.46   47.36
  -8  -8   1  781.88   48.78
   8   8  -1  807.43   72.50
   8   8   1  740.59   66.75
   8   8  -2    3.48   13.12
   8   8   2    2.67    8.59
   8  -8  -2   10.70    6.63
  -8  -8   2    5.19    7.37
   8  -8  -3  294.83   24.91
  -8  -8   3  322.28   25.22
  -8  -8  -3  303.67   24.68
   8   8   3  317.35   36.74
   8   8  -4   56.38   20.43
   8   8   4   83.70   18.80
   8  -8  -4   73.57   12.45
  -8  -8  -4   78.86   12.64
  -8  -8   4  105.44   13.86
   8   8   5  705.35   55.62
   8  -8  -5  615.48   43.30
  -8  -8   5  703.04   43.80
  -8  -8  -5  649.35   42.70
   8   8  -5  621.79   63.97
   8   8  -6   12.75   12.07
   8  -8  -6   27.79    9.29
  -8  -8   6   20.28    9.11
  -8  -8  -6   15.77    8.30
   8  -8  -7  443.88   33.48
  -8   8  -7  504.23   27.93
  -8  -8   7  396.98   32.80
  -8  -8  -7  470.79   33.64
   8   8  -7  417.56   47.83
   8  -8  -8  277.17   23.70
  -8   8  -8  304.71   18.86
  -8  -8   8  243.44   23.72
  -8  -8  -8  218.50   22.50
   8   8  -8  287.24   35.69
  -8   8  -9  403.15   24.35
  -8  -8   9  347.40   28.77
  -8  -8  -9  323.92   28.48
  -8  -8 -10   47.05    9.85
  -8   8 -10   53.51    7.51
   8  -8 -11  164.06   16.58
  -8   8 -11  185.56   14.14
   8  -8 -12   68.50   10.57
  -8   8 -12   62.16    7.92
  -8   8 -13  415.68   25.46
   8  -8 -14  247.51   18.40
  -8   8 -14  249.73   16.93
   8  -8 -15   18.92    5.36
  -8   8 -15   25.39    4.83
   8  -8 -16   35.07    5.54
  -8   8 -16   21.50    4.55
   8   8 -16   26.90    4.27
   8  -8 -17  117.13    8.49
  -8   8 -17  111.19    8.57
   8   8 -17  101.20    7.42
  -8   8 -18    5.41    2.11
  -9  -8   0  579.53   39.92
   9   8   0  609.82   62.01
   9  -8  -1  501.98   33.12
  -9  -8   1  472.93   35.11
   9   8  -1  468.47   55.58
   9   8   1  537.84   54.88
   9   8  -2  114.13   27.22
   9   8   2   57.04   17.72
   9  -8  -2  106.96   13.75
  -9  -8   2   86.58   14.47
   9   8   3   33.52   13.25
   9  -8  -3   42.65   10.20
  -9  -8   3   44.06   10.61
  -9  -8  -3   33.16   10.16
   9   8  -4  131.34   30.52
   9   8   4  160.58   25.27
   9  -8  -4  116.38   16.52
  -9  -8   4  151.85   18.22
  -9  -8  -4  175.73   18.67
   9   8   5  160.02   23.36
   9   8  -5  155.65   31.01
   9  -8  -5   80.84   14.05
  -9  -8   5  105.57   15.85
  -9  -8  -5  126.18   16.32
   9   8  -6  206.86   34.80
   9  -8  -6  175.75   20.12
  -9  -8   6  240.60   22.35
  -9  -8  -6  202.57   21.14
   9  -8  -7  257.56   24.10
  -9   8  -7  319.03   18.81
  -9  -8   7  264.24   24.60
  -9  -8  -7  223.60   23.28
   9   8  -7  245.36   36.84
   9  -8  -8  174.10   17.72
  -9   8  -8  162.01   12.57
  -9  -8   8  138.65   16.92
  -9  -8  -8  130.36   16.77
   9  -8  -9  198.82   19.18
  -9   8  -9  242.93   15.24
  -9  -8   9  184.56   18.35
  -9  -8 -10   41.16    8.50
  -9   8 -10   37.61    6.21
   9  -8 -11  102.89   12.39
  -9   8 -11   88.49    9.25
   9  -8 -12  246.80   19.41
  -9   8 -12  241.72   16.69
  -9   8 -13  307.92   19.70
  -9   8 -14    6.62    3.82
   9  -8 -15  106.57    9.64
  -9   8 -15   99.34    8.64
   9   8 -15  100.87    8.05
  -9   8 -16   51.48    5.68
   9   8 -16   43.17    4.76
   9  -8 -17   18.33    2.97
  -9   8 -17   19.55    3.17
 -10  -8   0 1099.77   68.16
  10   8   0 1296.13   97.84
  10   8  -1  105.58   28.12
  10   8   1   80.37   23.26
  10  -8  -1   88.58   11.73
 -10  -8   1   92.86   15.18
  10   8  -2   87.38   25.23
  10   8   2   63.18   18.15
  10  -8  -2   74.11   11.93
 -10  -8   2   45.81   11.90
  10   8  -3   29.92   18.20
  10   8   3   10.22    9.64
  10  -8  -3   11.21    7.87
 -10  -8   3    1.10    9.33
 -10  -8  -3    1.07    8.64
  10   8   4    2.27    9.30
  10  -8  -4    2.19    7.77
 -10  -8   4    2.18    8.04
 -10  -8  -4    1.07    8.67
  10   8  -5   16.00   13.68
  10  -8  -5   11.08    8.77
 -10  -8   5   18.25    9.57
 -10  -8  -5   20.03    9.85
  10  -8  -6   82.86   14.43
 -10  -8  -6   74.11   13.34
 -10  -8   6  111.57   15.72
  10  -8  -7   47.54   11.05
 -10  -8   7   52.07   10.89
 -10  -8  -7   47.76   10.97
  10  -8  -8  365.38   27.99
 -10   8  -8  338.85   21.70
 -10  -8   8  386.95   27.41
 -10  -8  -8  343.47   26.88
  10  -8  -9   43.15   10.17
 -10  -8   9   41.95    8.21
 -10  -8  -9   31.72    7.93
 -10  -8  -9   44.72    6.16
 -10   8  -9   46.84    6.28
  10  -8 -10   99.29   12.67
 -10   8 -10   70.49    7.96
 -10  -8 -10   88.44    9.46
  10  -8 -11   79.87   10.91
 -10   8 -11   69.65    7.69
  10  -8 -12   43.97    7.99
 -10   8 -12   41.23    5.99
 -10   8 -13    2.92    3.33
 -10   8 -14   62.66    6.60
  10  -8 -15   27.76    5.03
 -10   8 -15   23.87    3.99
  10   8 -15   21.13    3.50
  10  -8 -16   47.42    4.95
 -10   8 -16   42.22    4.42
 -11  -8   0   39.66   11.85
 -11  -8   1   23.10   10.61
  11  -8  -2   67.63   10.97
 -11  -8   2   51.12   12.03
 -11  -8   3  363.94   31.42
 -11  -8  -3  398.63   32.09
  11  -8  -4   63.30   12.49
 -11  -8   4   72.97   13.39
 -11  -8  -4   71.20   13.61
  11  -8  -5   72.74   13.54
 -11  -8   5   87.75   14.20
 -11  -8  -5   81.13   13.48
  11  -8  -6   55.01   12.17
 -11  -8   6   89.42   13.86
 -11  -8  -6   66.46   12.13
  11  -8  -7   82.70   13.37
 -11  -8  -7   84.72   12.54
 -11  -8   7  109.28   13.34
  11  -8  -8   55.35   10.59
 -11  -8   8   70.15   10.02
 -11  -8  -8   38.90    8.95
 -11  -8  -8   62.53    7.77
  11  -8  -9   93.66   12.48
 -11  -8  -9   80.50    8.05
 -11  -8   9   84.98    9.38
 -11  -8  -9   99.02   10.27
  11  -8 -10   19.15    7.26
 -11   8 -10   24.55    4.48
  11  -8 -11   54.91    8.92
 -11   8 -11   33.84    5.32
  11  -8 -12   20.53    6.13
 -11   8 -12   17.63    3.98
  11  -8 -13   39.66    6.29
 -11   8 -13   18.13    3.79
 -11   8 -14   16.88    3.20
  11  -8 -15   33.01    4.58
 -12  -8   0  143.84   17.56
 -12  -8   1    1.96    9.00
  12  -8  -2  203.07   17.92
 -12  -8   2  216.67   21.11
  12  -8  -3    4.88    6.61
 -12  -8   3   -0.91    8.50
 -12  -8  -3   -0.91    8.08
  12  -8  -4 1502.63   78.11
 -12  -8   4 1345.63   76.74
 -12  -8  -4 1240.49   75.91
  12  -8  -5   48.45   10.84
 -12  -8   5   35.85    9.63
 -12  -8  -5   40.45    9.78
  12  -8  -6   11.53    8.39
 -12  -8   6   13.54    7.16
 -12  -8  -6    6.21    6.15
  12  -8  -7   -0.83    7.24
 -12  -8   7    7.93    5.05
 -12  -8  -7    3.54    5.54
 -12  -8  -7   11.03    4.95
  12  -8  -8  176.50   16.30
 -12  -8  -8  153.17   12.11
 -12  -8   8  154.70   13.29
 -12  -8  -8  160.10   13.46
  12  -8  -9   -4.68    6.09
 -12  -8  -9    4.45    3.46
 -12  -8  -9   -0.83    3.27
  12  -8 -10  232.36   18.15
  12  -8 -11    6.57    4.92
  12  -8 -12  354.28   22.42
  12  -8 -13   37.37    5.88
 -13  -8   0   92.99   13.02
 -13  -8   1  252.85   21.60
  13  -8  -2   19.71    5.68
 -13  -8   2   18.94    8.23
  13  -8  -3  958.29   53.81
 -13  -8   3  977.41   55.23
 -13  -8  -3  893.78   54.48
  13  -8  -4   43.07    9.01
 -13  -8   4   44.54    8.68
 -13  -8  -4   31.88    8.46
  13  -8  -5  543.20   35.12
 -13  -8   5  581.82   34.09
 -13  -8  -5  504.71   33.32
  13  -8  -6   36.92    8.77
 -13  -8  -6   42.39    7.63
 -13  -8  -6   36.83    6.35
  13  -8  -7   50.72    9.28
 -13  -8   7   46.59    6.79
 -13  -8  -7   46.20    7.04
 -13  -8  -7   41.81    6.41
  13  -8  -8   40.78    8.10
 -13  -8  -8   39.57    5.43
  13  -8  -9  312.71   19.01
 -13  -8  -9  199.60   13.41
  13  -8 -10   -1.41    4.42
  13  -8 -11  427.36   25.72
  13  -8 -12   56.43    6.53
  13  -8 -13   94.30    7.71
 -14  -8   0   14.24    6.72
 -14  -8   1  101.00   11.62
 -14  -8   2  364.92   24.75
  14  -8  -3   23.82    5.46
 -14  -8   3   30.16    7.30
 -14  -8  -3   33.98    7.20
  14  -8  -4  493.66   32.51
 -14  -8  -4  575.51   32.62
 -14  -8   4  587.77   33.29
 -14  -8  -4  562.57   33.14
  14  -8  -5  146.09   13.92
 -14  -8  -5  160.79   12.84
 -14  -8  -5  163.60   13.51
 -14  -8  -6   36.11    6.00
  14  -8  -6   40.10    7.33
 -14  -8  -6   35.19    5.68
  14  -8  -7   79.33    9.36
 -14  -8  -7   72.83    7.28
  14  -8  -8   43.65    6.99
 -14  -8  -8   27.80    4.14
  14  -8  -9   63.16    7.55
  14  -8 -10  242.60   16.09
  14  -8 -11   21.46    4.24
  14  -8 -12  120.53    8.66
 -15  -8   0  173.00   13.80
 -15  -8   1   16.19    5.32
 -15  -8   2   40.93    6.62
 -15  -8  -3  298.38   19.49
 -15  -8  -3  320.87   19.98
  15  -8  -4   80.38    7.87
 -15  -8  -4  114.91    9.19
  15  -8  -5   16.22    4.22
 -15  -8  -5   14.32    4.02
  15  -8  -6   45.07    6.13
 -15  -8  -6   62.99    6.08
  15  -8  -7    0.66    3.21
 -15  -8  -7    6.59    2.82
 -15  -8   7    7.65    2.95
  15  -8  -8   64.90    6.35
 -15  -8   8   45.17    4.53
  15  -8  -9    1.60    2.49
  15  -8 -10    5.50    2.40
 -16  -8   0  240.60   15.63
 -16  -8   1   20.90    4.59
 -16  -8   2   22.39    4.66
 -16  -8  -3    1.64    2.82
 -16  -8   3   -0.56    3.14
 -16  -8  -4   24.48    4.15
 -16  -8   4   19.22    3.93
 -16  -8  -5   11.35    2.94
 -16  -8   5    8.22    2.91
 -16  -8  -6   13.44    2.55
 -16  -8   6   10.11    2.60
 -17  -8   0  116.73    8.34
 -17  -8   1    2.91    2.48
 -17  -8   2   36.70    4.35
 -17  -8  -3   69.75    5.63
 -17  -8   3   59.84    5.45
 -17  -8  -4   88.57    6.25
 -17  -8   4   85.39    6.11
   0  -9   0    1.50    3.91
   0  -9  -1   68.79    8.74
   0  -9  -2   78.05    9.47
   0   9   2  105.00   21.28
   0  -9  -3 1188.10   65.44
   0   9   3 1259.13   89.09
   0  -9  -4   34.64    7.06
   0   9   4   27.58   12.65
   0  -9  -5   59.63    8.89
   0  -9   5   69.43    9.32
   0   9   5   75.70   20.12
   0  -9  -6   59.13    8.97
   0  -9   6   64.17    8.95
   0  -9  -6   62.95    8.90
   0   9   6   71.70   19.98
   0   9   7   43.56   17.38
   0  -9  -7   73.64   10.02
   0  -9  -7   76.15    9.74
   0  -9   7   66.32    9.37
   0   9   8   10.89   11.71
   0  -9  -8   18.40    6.74
   0  -9   8   20.03    6.16
   0  -9  -8   15.77    5.89
   0  -9  -9  125.58   12.75
   0  -9   9  112.00   11.60
   0  -9  -9  104.47   11.43
   0   9   9   94.82   26.00
   0  -9 -10   11.24    6.52
   0   9  10    4.29   16.19
   0  -9 -10    3.17    5.22
   0   9 -11  383.26   24.65
   0   9 -12   50.30    7.54
   0  -9 -13   23.40    6.58
   0   9 -13   22.34    5.98
   0  -9 -14   19.70    6.08
   0  -9 -14    6.29    4.25
   0  -9 -15    1.78    3.80
   0   9 -16   -1.90    3.77
   0  -9 -16   -0.61    3.03
   0   9 -17    5.40    3.60
   0  -9 -17    1.22    2.25
   0   9 -18    4.90    2.65
   0   9 -19   55.33    4.66
   1  -9   0  866.56   49.71
  -1  -9   0  946.39   51.86
  -1  -9  -1   98.79   10.75
   1  -9  -1  104.41   10.80
  -1  -9   1  123.05   12.19
   1   9   2   57.74   18.07
  -1  -9  -2   43.32    7.37
   1  -9  -2   46.28    7.40
  -1  -9   2   60.64    8.86
  -1  -9  -3   12.45    5.68
   1  -9  -3   19.57    5.66
   1   9   3   21.37   12.92
  -1  -9   3   19.42    6.20
  -1  -9  -3   17.56    6.40
   1  -9  -4  197.79   16.28
  -1  -9   4  205.87   16.40
  -1  -9  -4  209.25   16.73
  -1  -9  -4  178.99   15.61
   1   9   4  159.65   27.67
   1  -9  -5   93.55   10.71
  -1  -9   5   78.36   10.06
  -1  -9  -5   83.85   10.58
  -1  -9  -5   80.14   10.06
   1   9   5   92.69   21.49
  -1  -9  -6  135.29   13.06
  -1  -9   6  110.81   12.25
  -1  -9  -6  152.46   13.50
   1   9   6  114.85   24.96
   1  -9  -6  114.00   12.26
  -1  -9  -7  110.00   11.99
   1  -9  -7   92.02   11.66
  -1  -9   7   86.15   10.81
  -1  -9  -7  134.91   12.47
   1  -9   7  115.20   11.78
   1  -9  -7  119.38   11.90
   1   9   7  129.92   26.78
  -1  -9  -8  231.07   18.73
   1  -9  -8  264.23   19.56
  -1  -9   8  233.20   18.14
   1   9   8  219.70   36.52
  -1  -9  -8  224.81   17.97
   1  -9   8  195.89   17.03
   1  -9  -8  255.81   18.50
  -1  -9  -9  113.42   12.05
  -1  -9  -9  114.77   11.64
   1   9   9  128.62   28.75
  -1  -9   9   78.03   10.49
   1  -9  -9   69.28    9.73
   1  -9  -9  104.72   11.86
  -1  -9 -10  140.93   14.76
  -1  -9 -10  188.10   16.68
   1  -9 -10  220.49   17.45
   1  -9 -10  235.94   16.41
   1   9  10  155.97   34.49
  -1   9 -10  198.85   15.10
  -1   9 -11  167.76   13.78
  -1  -9 -12   -0.61    5.14
  -1   9 -12    2.00    4.52
   1   9 -12   -1.93    4.60
  -1  -9 -12   -0.41    3.46
  -1  -9 -13   61.15    8.97
   1  -9 -13   65.47    9.50
  -1   9 -13   61.62    8.22
  -1  -9 -13   42.04    6.48
   1  -9 -14   72.52    9.41
  -1   9 -14   98.02    9.58
  -1  -9 -14   69.22    7.89
   1   9 -15   60.12    7.48
  -1  -9 -15   49.72    6.30
   1  -9 -15   39.34    6.10
   1   9 -16   17.44    4.47
  -1  -9 -16   11.97    3.63
   1  -9 -16   11.09    3.58
  -1   9 -17   17.74    4.16
   1   9 -17   11.54    3.63
  -1  -9 -17   13.52    3.08
   1  -9 -17    7.98    2.71
  -1   9 -18   32.65    4.44
   1   9 -18   38.67    4.58
   2  -9   0  157.32   13.74
  -2  -9   0  188.95   15.63
   2  -9  -1 1134.16   64.04
  -2  -9   1 1254.19   65.91
   2  -9  -2  303.03   21.95
  -2  -9   2  340.42   23.10
  -2  -9  -3   46.28    7.76
   2  -9  -3   47.52    7.89
   2   9   3   50.53   15.31
  -2  -9   3   52.12    8.30
  -2  -9  -3   43.51    8.37
   2  -9  -4  294.14   21.89
  -2  -9   4  335.90   22.47
  -2  -9  -4  313.29   22.38
  -2  -9  -4  296.49   21.52
   2   9   4  251.66   36.09
  -2   9   4  289.67   37.21
  -2  -9  -5  112.75   11.98
  -2  -9   5  110.02   11.92
  -2  -9  -5  136.61   13.03
   2  -9  -5  104.44   12.06
   2   9   5  131.57   25.62
  -2   9   5  124.24   24.90
  -2  -9  -6  441.20   27.08
   2  -9  -6  366.01   26.34
  -2  -9   6  331.66   25.33
  -2  -9  -6  435.19   26.99
   2   9   6  373.27   44.54
  -2   9   6  373.26   43.95
  -2  -9  -7 1580.16   81.20
  -2  -9   7 1533.79   80.49
   2  -9  -7 1397.06   80.85
  -2  -9  -7 1485.81   80.43
   2   9   7 1445.80  108.40
  -2   9   7 1346.90  105.36
  -2   9  -7 1517.18   78.15
  -2  -9  -8  322.30   22.66
  -2  -9  -8  295.26   21.69
   2  -9  -8  262.39   22.08
   2  -9   8  302.58   21.12
   2   9   8  281.48   40.56
  -2   9   8  278.00   39.88
  -2  -9   8  282.81   21.49
  -2   9  -8  321.89   20.33
  -2  -9   9  244.12   20.58
  -2  -9  -9  313.53   21.88
  -2  -9  -9  320.81   22.51
   2  -9  -9  296.35   22.53
   2  -9   9  292.08   20.38
   2  -9  -9  255.63   20.23
   2   9   9  315.54   44.21
  -2   9   9  295.61   42.08
  -2   9  -9  378.95   21.38
   2  -9 -10  122.70   13.08
   2  -9 -10   99.98   10.77
  -2   9 -10  117.49   10.93
  -2  -9 -10   99.31   11.75
   2  -9 -11   12.18    6.24
  -2   9 -11   15.05    5.24
  -2   9 -12   91.94    9.83
  -2  -9 -12   80.30    8.43
   2  -9 -13  205.79   16.33
  -2   9 -13  214.83   15.32
   2  -9 -14   55.03    8.60
  -2   9 -14   73.68    8.37
   2   9 -14   76.57    8.47
   2  -9 -15  409.83   26.00
  -2   9 -15  498.51   26.44
   2   9 -15  443.78   25.61
  -2  -9 -15  356.15   23.93
   2  -9 -16   19.10    4.80
   2   9 -16   17.46    4.67
  -2  -9 -16   15.49    3.81
   2  -9 -16   15.47    3.94
   2   9 -17    2.98    3.23
  -2  -9 -17    4.28    2.33
   2  -9 -17    6.76    2.57
  -2   9 -18   10.91    3.04
   2   9 -18   13.26    2.99
  -3  -9   0 1676.34   89.52
   3  -9  -1   36.12    6.82
  -3  -9   1   36.18    7.77
   3  -9  -2 1274.82   70.83
  -3  -9   2 1345.71   71.78
   3  -9  -3   90.38   11.09
  -3  -9   3  102.37   11.86
  -3  -9  -3  138.48   12.90
   3   9   3  164.82   26.19
  -3   9   3   83.49   19.94
   3  -9  -4    8.51    5.87
   3   9   4   21.65   11.10
  -3   9   4   -2.65    9.54
  -3  -9   4    2.52    5.13
  -3  -9  -4   11.61    6.44
  -3   9  -4    3.91    3.04
   3  -9  -5  160.44   14.77
  -3  -9   5  133.44   13.34
  -3  -9  -5  116.30   13.10
   3   9   5  108.98   24.10
  -3   9   5  171.86   28.05
  -3   9  -5  147.64   11.41
   3   9   6 1553.63  109.30
  -3   9   6 1480.57  107.50
  -3  -9   6 1564.29   84.32
  -3  -9  -6 1549.39   84.34
   3  -9  -6 1541.12   84.96
  -3   9  -6 1617.75   81.52
   3  -9  -7   73.65   10.65
  -3  -9   7   73.34   10.51
  -3  -9  -7   73.71   10.37
  -3   9  -7   79.34    8.52
   3   9   7   49.68   17.66
  -3   9   7   51.22   17.83
  -3  -9   8 1039.35   59.65
  -3  -9  -8 1055.17   59.75
   3  -9  -8 1050.13   60.78
   3   9   8  912.64   82.71
  -3   9   8  921.14   82.20
  -3   9  -8 1147.75   57.90
  -3   9   9   49.62   17.74
   3  -9  -9   45.39    8.87
  -3  -9   9   28.59    7.38
  -3  -9  -9   34.55    7.59
   3   9   9   17.11   13.03
   3  -9   9   47.42    7.23
   3  -9  -9   23.25    6.42
  -3   9  -9   49.30    6.94
   3  -9 -10  196.88   17.23
   3  -9 -10  167.36   14.54
  -3   9 -10  222.03   15.55
  -3  -9 -10  179.06   16.45
   3  -9 -11   22.26    7.76
  -3   9 -11   24.28    5.81
  -3   9 -12   90.93    9.51
  -3  -9 -12   53.44    6.88
  -3   9 -13   87.25    9.40
  -3  -9 -13   76.82    8.03
   3  -9 -14  769.91   42.71
  -3   9 -14  794.73   41.64
   3   9 -14  777.73   41.05
   3  -9 -15   20.59    6.34
  -3   9 -15   23.59    5.64
   3   9 -15   25.02    5.37
  -3  -9 -15   17.04    4.28
   3  -9 -16  213.16   14.27
  -3   9 -16  239.13   14.31
   3   9 -16  215.67   13.79
   3   9 -17    0.56    2.85
  -3  -9 -17    2.04    1.87
   3  -9 -17    3.45    2.21
   3   9 -18    5.51    2.44
  -4  -9   0    4.01    5.70
  -4  -9   1 1182.07   62.38
   4  -9  -1 1037.65   60.12
   4   9  -2  986.82   69.47
  -4  -9   2  901.22   51.21
   4  -9  -2  836.01   50.10
   4   9  -3   22.46   11.20
   4  -9  -3   20.53    6.33
  -4  -9   3   25.35    7.22
  -4  -9  -3   30.46    7.32
   4   9  -4   44.13   14.08
   4  -9  -4   34.25    7.52
   4   9   4   42.81   15.31
  -4   9   4   30.94   13.22
  -4  -9   4   23.52    7.24
  -4  -9  -4   44.24    8.36
   4   9  -5  273.85   31.48
  -4  -9   5  229.08   18.16
  -4  -9  -5  203.33   17.91
   4  -9  -5  188.43   17.43
   4   9   5  157.94   28.50
  -4   9   5  175.47   28.66
  -4   9  -5  219.23   14.95
   4   9  -6  634.53   52.31
  -4  -9   6  704.20   39.80
  -4  -9  -6  643.60   39.09
   4  -9  -6  695.06   40.44
  -4   9  -6  578.28   35.24
   4   9   6  526.36   55.13
  -4   9   6  543.42   54.68
  -4  -9   7 1150.48   67.26
   4   9  -7 1162.26   80.74
  -4  -9  -7 1268.09   67.95
   4   9   7 1080.44   88.17
  -4   9   7 1147.88   88.54
   4  -9  -7 1227.28   68.55
  -4   9  -7 1249.94   64.49
   4  -9  -8   35.33    8.67
  -4  -9   8   44.62    8.97
  -4  -9  -8   62.94    9.91
  -4   9  -8   64.89    7.71
   4   9   8   60.10   17.94
  -4   9   8   43.49   16.02
   4  -9  -9  147.57   14.83
  -4   9  -9  138.88   11.93
   4   9   9  101.17   23.21
  -4  -9   9  129.44   14.15
  -4  -9  -9  117.19   13.37
   4  -9 -10  367.53   26.16
   4  -9 -10  332.36   22.72
  -4   9 -10  369.06   23.19
  -4  -9 -10  342.64   25.64
   4  -9 -11   26.25    7.94
  -4   9 -11   36.50    6.67
  -4   9 -12   47.84    7.06
  -4   9 -13  198.90   14.20
  -4  -9 -13  149.12   12.15
   4  -9 -14  177.25   13.69
  -4   9 -14  125.99   11.27
   4   9 -14  167.41   11.95
  -4  -9 -14   98.02    9.67
   4  -9 -15  408.33   23.25
  -4   9 -15  397.98   22.21
   4   9 -15  383.70   21.83
   4  -9 -16   14.23    4.43
  -4   9 -16   13.59    4.21
   4   9 -16   22.91    4.39
  -4  -9 -16   16.95    3.38
  -4   9 -17   16.86    3.74
   4   9 -17   13.20    3.32
   4  -9 -17   11.45    2.53
   4   9 -18   32.12    3.58
   5   9   0  876.43   71.69
  -5  -9   0  979.84   55.65
  -5  -9   1  431.25   28.51
   5  -9  -1  380.52   26.25
   5  -9  -2   73.70   10.05
  -5  -9   2   75.02   11.01
  -5  -9   3  722.71   43.65
  -5  -9  -3  744.73   43.85
   5  -9  -3  669.17   42.98
   5   9  -3  757.24   61.69
  -5  -9   4  145.59   14.58
  -5  -9  -4  123.31   13.99
   5   9  -4  132.52   23.93
   5  -9  -4  141.76   14.59
   5   9   4  136.24   24.18
  -5   9   4  121.26   22.76
  -5  -9   5  279.67   20.74
  -5  -9  -5  202.50   18.74
   5  -9  -5  259.94   21.01
  -5   9   5  244.08   31.93
   5   9  -5  284.50   33.87
   5   9  -6  227.29   30.75
  -5  -9  -6  283.26   21.89
   5  -9  -6  272.98   22.31
  -5   9  -6  264.80   17.82
   5   9   6  228.29   32.83
  -5   9   6  261.98   33.69
  -5  -9   6  275.31   21.78
   5   9  -7  530.51   50.81
   5  -9  -7  659.45   41.46
  -5   9  -7  653.23   36.77
   5   9   7  641.37   58.17
  -5   9   7  557.23   54.70
  -5  -9   7  668.51   40.78
  -5  -9  -7  671.00   40.72
   5  -9  -8  108.90   13.27
  -5   9  -8  129.99   10.81
   5   9   8   91.23   21.41
  -5   9   8   83.24   19.50
  -5  -9   8  107.34   13.48
  -5  -9  -8  114.16   13.55
   5  -9  -9  199.20   19.11
  -5   9  -9  251.38   16.70
  -5  -9   9  198.79   19.46
  -5  -9  -9  220.67   19.57
   5  -9 -10   96.77   12.27
  -5  -9 -10   71.03   11.24
  -5   9 -10   83.62    9.16
   5  -9 -11  419.46   28.58
  -5   9 -11  397.02   25.27
   5  -9 -12   18.55    7.27
  -5   9 -12   14.01    5.15
  -5   9 -13   60.45    7.54
  -5  -9 -13   54.72    6.34
   5  -9 -14   88.97   10.02
  -5   9 -14  100.94    9.10
   5   9 -14   93.12    8.70
  -5  -9 -14   75.70    7.55
   5  -9 -15  195.56   13.54
  -5   9 -15  191.07   12.53
   5   9 -15  178.03   12.16
   5  -9 -16    6.48    3.83
  -5   9 -16   15.76    4.16
   5   9 -16   17.07    3.83
   5  -9 -17    5.20    2.65
  -5   9 -17   10.31    2.94
   5   9 -17    8.91    2.84
  -5   9 -18   12.95    2.51
  -6  -9   0  121.95   13.78
   6   9   0  100.27   22.52
   6   9   1   13.02    9.84
   6  -9  -1   11.71    5.29
  -6  -9   1   17.74    7.58
  -6  -9   2  677.34   41.98
   6  -9  -2  653.02   40.81
  -6  -9  -3  970.94   56.29
   6  -9  -3  893.78   55.46
   6   9  -3  920.84   75.67
  -6  -9   3 1017.19   56.68
   6   9  -4  188.71   30.13
   6  -9  -4  192.86   18.82
  -6  -9   4  256.19   20.06
  -6  -9  -4  187.90   18.20
   6   9  -5  101.20   21.61
   6  -9  -5   90.28   12.78
  -6  -9   5   80.35   12.07
  -6  -9  -5   82.19   12.04
   6  -9  -6  330.55   24.75
  -6   9  -6  257.58   17.97
   6   9   6  188.93   29.92
  -6   9   6  280.70   33.86
  -6  -9   6  359.74   24.65
  -6  -9  -6  266.61   22.43
   6   9  -6  312.80   36.63
   6   9  -7   11.50    9.06
   6  -9  -7    6.17    6.73
   6   9   7   -2.43    7.32
  -6   9   7    4.66    7.50
  -6  -9   7   -0.84    6.95
  -6  -9  -7    2.45    6.32
  -6   9  -7    4.90    3.63
   6  -9  -8  154.08   17.11
  -6   9  -8  189.77   13.98
  -6  -9   8  177.22   18.11
  -6  -9  -8  175.92   17.85
   6  -9  -9   60.26   10.74
  -6  -9   9   44.81   10.25
  -6  -9  -9   54.04   10.54
  -6   9  -9   47.79    6.91
   6  -9 -10  287.02   22.30
  -6   9 -10  288.96   18.62
   6  -9 -11  458.23   30.81
  -6   9 -11  447.28   27.27
   6  -9 -12  109.49   12.25
  -6   9 -12   82.45    8.77
  -6   9 -13    1.96    3.73
  -6   9 -14  104.03    9.27
   6  -9 -15   10.88    4.29
  -6   9 -15    7.95    3.59
   6   9 -15    5.69    3.41
   6  -9 -16   11.74    3.83
  -6   9 -16   12.65    3.32
   6   9 -16   15.78    3.59
   6  -9 -17   26.99    3.52
  -6   9 -17   20.18    3.45
   6   9 -17   23.22    3.19
   7   9   0   60.70   18.33
  -7  -9   0   85.78   12.42
   7   9  -1   66.45   20.29
   7   9   1   68.93   18.46
   7  -9  -1   60.24    9.12
  -7  -9   1   71.48   11.67
   7   9   2  320.77   39.15
   7  -9  -2  356.40   25.61
  -7  -9   2  331.15   26.28
   7   9  -3   96.96   23.59
   7  -9  -3   70.60   11.56
  -7  -9   3   86.89   12.55
  -7  -9  -3   87.38   12.69
   7  -9  -4  405.22   30.92
  -7  -9   4  458.27   31.71
  -7  -9  -4  434.28   31.04
   7   9  -4  419.09   48.06
   7   9  -5   71.86   18.86
   7  -9  -5   50.15   11.01
  -7  -9   5   54.50   11.03
  -7  -9  -5   63.21   11.14
   7   9  -6  158.15   26.89
   7  -9  -6  118.42   15.26
  -7  -9   6  131.48   15.84
  -7  -9  -6  112.65   14.57
   7  -9  -7   26.27    8.76
  -7  -9   7   34.33    9.58
  -7  -9  -7   16.96    8.34
  -7   9  -7   26.16    4.88
   7  -9  -8   23.39    8.60
  -7  -9   8   31.81    9.25
  -7  -9  -8   20.81    8.89
  -7   9  -8   29.27    5.29
   7  -9  -9  207.11   19.69
  -7  -9   9  191.64   19.96
  -7  -9  -9  183.58   19.84
   7  -9 -10  395.46   26.79
  -7   9 -10  361.50   21.75
   7  -9 -11   20.45    8.11
  -7   9 -11   17.18    4.70
   7  -9 -12  178.41   15.49
  -7   9 -12  157.52   12.37
  -7   9 -13  117.15    9.90
  -7   9 -14   24.66    4.58
   7  -9 -15   -2.92    3.66
  -7   9 -15   -0.28    2.70
   7   9 -15    3.16    2.94
   7  -9 -16    1.61    2.62
  -7   9 -16    2.70    2.38
   7   9 -16    2.94    2.32
   8   9   0  178.28   32.61
  -8  -9   0  232.89   21.06
   8   9  -1   56.77   19.54
   8   9   1   65.67   19.33
  -8  -9   1   49.17   10.92
   8   9   2   63.33   18.46
   8  -9  -2   59.92   10.08
  -8  -9   2   58.90   11.38
   8  -9  -3   54.03   10.25
  -8  -9   3   40.56   10.72
  -8  -9  -3   50.43   11.09
   8  -9  -4  297.75   25.80
  -8  -9   4  330.38   26.72
  -8  -9  -4  339.08   26.67
   8   9  -4  297.49   42.58
   8  -9  -5  135.48   16.93
  -8  -9  -5  100.90   15.01
  -8  -9   5  137.89   16.46
   8  -9  -6   87.97   14.21
  -8  -9   6  103.50   15.15
  -8  -9  -6  129.02   15.97
   8  -9  -7  251.19   22.93
  -8  -9   7  247.00   23.33
  -8  -9  -7  271.91   23.72
   8  -9  -8  256.23   22.79
  -8   9  -8  283.49   17.68
  -8  -9   8  281.68   24.12
  -8  -9  -8  231.83   23.00
   8  -9  -9   33.78    8.97
  -8  -9   9   13.78    7.87
  -8  -9  -9   21.24    8.58
  -8   9  -9   37.54    5.50
   8  -9 -10   22.87    8.00
  -8  -9 -10   25.05    6.87
  -8   9 -10   14.32    4.13
   8  -9 -11  151.02   13.79
  -8   9 -11   96.38    9.22
   8  -9 -12  157.06   13.25
  -8   9 -12   93.20    8.93
   8  -9 -13   29.39    6.66
  -8   9 -13   31.64    4.80
  -8   9 -14    8.12    3.35
   8  -9 -15  144.73   10.54
  -8   9 -15  121.66    9.28
   8   9 -15  143.06    9.45
   8  -9 -16   57.55    5.21
   8   9 -16   47.63    4.47
  -9  -9   0  258.65   24.11
  -9  -9   1  148.01   17.73
   9  -9  -2  299.86   23.33
  -9  -9   2  315.17   26.39
   9  -9  -3  206.50   20.16
  -9  -9   3  235.99   22.04
  -9  -9  -3  242.95   22.48
   9  -9  -4   72.01   12.08
  -9  -9   4   73.41   12.68
  -9  -9  -4   50.97   11.85
   9  -9  -5   99.10   14.65
  -9  -9  -5   95.90   14.96
  -9  -9   5  122.86   16.18
   9  -9  -6  336.28   28.21
  -9  -9   6  386.88   29.57
  -9  -9  -6  360.46   28.87
   9  -9  -7   93.76   14.40
  -9  -9  -7  106.76   14.79
  -9  -9   7  116.65   15.38
   9  -9  -8  243.19   21.45
  -9  -9   8  253.27   21.56
  -9  -9  -8  209.62   20.52
   9  -9  -9  127.44   14.26
  -9  -9   9  137.56   13.57
  -9  -9  -9   95.13   12.61
   9  -9 -10   25.08    7.35
  -9   9 -10   16.68    3.90
   9  -9 -11   66.44    9.42
  -9   9 -11   49.88    5.95
   9  -9 -12   31.74    6.63
  -9   9 -12   15.83    3.79
   9  -9 -13   59.87    7.46
  -9   9 -13   37.99    4.84
  -9   9 -14  207.72   13.77
   9   9 -14  266.46   14.45
   9  -9 -15   45.73    5.26
   9   9 -15   41.40    4.45
 -10  -9   0   40.07   11.12
 -10  -9   1  327.96   28.10
  10  -9  -2  557.85   36.10
 -10  -9   2  621.23   41.56
  10  -9  -3   23.67    8.21
 -10  -9   3   25.29   10.22
 -10  -9  -3   12.67    9.81
  10  -9  -4   73.14   12.19
 -10  -9   4   52.40   12.24
 -10  -9  -4   47.35   11.86
  10  -9  -5   18.56    8.49
 -10  -9   5   15.59    9.50
 -10  -9  -5    7.87    8.62
  10  -9  -6  280.02   24.29
 -10  -9   6  258.03   23.12
 -10  -9  -6  259.45   22.96
  10  -9  -7  361.50   29.16
 -10  -9  -7  358.47   28.09
  10  -9  -8   85.81   12.35
 -10  -9  -8   68.79   11.10
 -10  -9  -8   90.51    8.45
  10  -9  -9   16.27    7.02
 -10  -9  -9   11.32    4.90
  10  -9 -10  208.04   17.28
  10  -9 -11    6.02    5.14
  10  -9 -12   89.16    9.50
  10  -9 -13   67.23    7.50
  10   9 -14   34.04    3.92
  10  -9 -15   85.65    6.52
 -11  -9   0  117.14   16.59
 -11  -9   1   92.05   15.22
 -11  -9   2   70.97   13.33
  11  -9  -3  208.33   18.01
 -11  -9   3  226.15   21.63
 -11  -9  -3  204.65   20.94
  11  -9  -4  221.59   19.08
 -11  -9   4  197.95   19.92
 -11  -9  -4  171.88   19.28
  11  -9  -5   98.09   13.03
 -11  -9  -5   99.80   13.57
  11  -9  -6   12.55    7.19
 -11  -9   6   -0.71    6.56
 -11  -9  -6    2.20    6.93
  11  -9  -7  185.59   18.03
 -11  -9  -7  185.49   13.94
 -11  -9   7  229.24   17.26
 -11  -9  -7  183.46   16.71
  11  -9  -8   10.74    6.21
 -11  -9   8   22.51    5.64
 -11  -9  -8   22.93    5.99
 -11  -9  -8   16.65    3.78
  11  -9  -9   57.99    9.33
 -11  -9  -9   63.44    6.81
  11  -9 -10   63.27    8.76
  11  -9 -11  198.93   15.10
  11  -9 -12   59.13    7.13
  11  -9 -13   11.32    3.57
 -12  -9   0   20.26    9.01
 -12  -9   1  106.11   14.26
 -12  -9   2  233.89   20.66
  12  -9  -3  590.59   37.08
 -12  -9   3  715.21   41.39
 -12  -9  -3  667.46   41.26
  12  -9  -4   43.75    8.02
 -12  -9   4   59.62   10.67
 -12  -9  -4   59.82   10.50
  12  -9  -5  332.05   23.68
 -12  -9   5  338.17   23.42
 -12  -9  -5  305.01   23.00
  12  -9  -6  186.26   15.66
 -12  -9  -6  151.04   12.16
 -12  -9   6  152.27   13.52
 -12  -9  -6  152.15   13.85
  12  -9  -7   69.58    9.63
 -12  -9  -7   57.11    6.63
 -12  -9   7   74.09    8.15
 -12  -9  -7   65.68    8.18
  12  -9  -8   30.53    6.85
 -12  -9   8   34.50    5.09
 -12  -9  -8   30.54    4.98
 -12  -9  -8   23.68    3.69
  12  -9  -9   49.19    7.49
  12  -9 -10  203.68   14.90
  12  -9 -11  519.49   29.63
  12  -9 -12    6.31    3.15
  12  -9 -13   32.53    3.80
 -13  -9   0  179.60   16.26
 -13  -9   1   83.61   11.09
 -13  -9   2  576.76   35.63
 -13  -9   3   47.75    8.38
 -13  -9  -3   42.35    8.04
  13  -9  -4  572.48   35.49
 -13  -9  -4  644.47   37.53
  13  -9  -5   97.03    9.95
 -13  -9  -5   94.70    9.16
 -13  -9   5  114.40   10.44
 -13  -9  -5  114.83   10.74
  13  -9  -6  370.39   22.35
 -13  -9  -6  308.00   19.73
 -13  -9   6  340.79   20.89
 -13  -9  -6  343.78   21.20
  13  -9  -7    3.95    4.09
 -13  -9  -7    4.94    2.39
  13  -9  -8   28.55    5.51
  13  -9  -9  160.28   12.02
  13  -9 -10  454.58   25.83
  13  -9 -11    3.01    2.59
 -14  -9   0   49.83    7.39
 -14  -9   1   98.81   10.08
 -14  -9   2   35.16    6.35
 -14  -9   3  407.52   22.97
 -14  -9  -3  377.40   22.74
 -14  -9  -4   57.67    6.41
 -14  -9   4   54.64    6.54
 -14  -9  -4   50.84    6.57
  14  -9  -5  226.89   14.77
 -14  -9  -5  255.72   15.11
  14  -9  -6   27.32    4.37
 -14  -9  -6   43.27    4.50
  14  -9  -7    1.31    2.50
  14  -9  -8   31.50    4.18
 -14  -9   8   33.61    3.75
  14  -9  -9   56.05    5.22
 -15  -9   1   14.90    4.15
 -15  -9  -2    0.54    2.91
 -15  -9   2    0.29    3.23
 -15  -9  -3   15.48    3.47
 -15  -9   3    3.04    3.16
 -15  -9  -4   82.81    7.23
 -15  -9   4  117.84    8.29
 -15  -9  -5   16.86    2.78
 -15  -9   5   22.00    3.65
 -15  -9   6   38.99    4.05
 -16  -9   1   74.06    6.02
 -16  -9  -2   14.80    2.77
 -16  -9   2   17.68    3.08
 -16  -9  -3    5.29    1.96
 -16  -9   3    1.67    1.89
   0 -10   0  259.42   20.40
   0 -10   1   36.09    7.61
   0 -10  -2 1493.49   83.83
   0 -10   2 1697.81   85.86
   0 -10  -3    8.44    5.34
   0 -10   3    9.10    5.46
   0 -10  -3   14.23    6.23
   0 -10  -4 2148.60  112.95
   0 -10   4 2070.83  112.90
   0 -10  -4 2288.31  114.07
   0 -10  -5   96.04   11.90
   0 -10   5  152.10   13.64
   0 -10  -5  146.85   13.87
   0  10   5  134.96   26.58
   0 -10  -6  459.91   30.82
   0 -10   6  475.65   30.66
   0 -10  -6  497.32   31.28
   0  10   6  529.95   55.83
   0 -10  -7    4.56    5.45
   0 -10   7   -0.59    5.31
   0 -10  -7    8.69    5.91
   0 -10  -8  433.32   27.40
   0 -10   8  380.52   25.70
   0 -10  -8  371.20   26.05
   0 -10  -9   10.86    6.61
   0 -10   9   12.29    5.09
   0 -10  -9   20.76    6.16
   0  10  -9   12.39    4.90
   0 -10 -10 1248.55   69.97
   0 -10 -10 1369.32   71.98
   0  10 -10 1333.84   69.43
   0 -10 -11   42.45    8.24
   0  10 -11   37.34    6.54
   0  10 -12  672.48   38.10
   0  10 -13  157.04   12.31
   0  10 -14  118.17   10.06
   0  10 -15    2.52    3.11
  -1 -10   0  280.03   21.41
   1 -10  -1  136.59   12.79
  -1 -10   1  146.70   14.18
   1 -10  -2  441.12   29.56
  -1 -10   2  504.84   31.42
   1 -10  -3 1356.32   75.83
  -1 -10   3 1490.78   77.03
  -1 -10  -3 1380.19   76.76
  -1 -10  -4  210.53   17.16
   1 -10  -4  178.45   16.59
  -1 -10   4  190.08   16.71
  -1 -10  -4  249.48   18.58
   1 -10   4  199.72   17.13
   1 -10  -4  218.38   17.93
  -1 -10  -5  634.23   38.71
   1 -10  -5  615.76   38.85
  -1 -10   5  606.00   38.53
  -1 -10  -5  679.83   39.76
   1 -10   5  679.78   39.35
   1 -10  -5  628.00   39.23
   1  10   5  647.94   62.02
  -1 -10  -6  236.33   19.65
   1 -10  -6  282.23   20.87
  -1 -10   6  302.49   20.79
  -1 -10  -6  255.50   20.15
   1 -10   6  229.67   19.19
   1 -10  -6  315.93   21.39
   1  10   6  237.34   36.75
  -1 -10  -7   58.49    8.56
   1 -10  -7   55.03    8.88
  -1 -10   7   32.87    7.64
  -1 -10  -7   33.63    7.71
   1 -10   7   26.52    6.89
   1 -10  -7   43.74    8.12
  -1  10  -7   38.29    5.92
  -1 -10  -8   37.39    7.73
   1 -10  -8   42.16    8.07
  -1 -10   8   34.68    7.28
  -1 -10  -8   22.21    6.59
   1 -10   8   30.49    6.44
   1 -10  -8   39.37    7.36
  -1  10  -8   31.26    5.79
  -1 -10   9  365.76   24.88
  -1 -10  -9  376.65   25.49
  -1 -10  -9  378.79   25.94
   1 -10  -9  398.62   26.58
   1 -10   9  348.70   23.96
   1 -10  -9  374.19   24.80
  -1  10  -9  402.25   24.04
   1 -10 -10  151.26   13.08
  -1 -10 -10  156.73   14.64
   1 -10 -10  170.58   15.40
  -1  10 -10  183.58   13.41
   1  10 -10  164.36   13.06
  -1 -10 -10  119.68   13.37
   1 -10 -11  789.07   45.29
  -1  10 -11  742.89   42.81
   1  10 -11  787.01   43.06
  -1  10 -12  177.50   12.80
   1  10 -12  131.32   11.84
  -1  10 -13  146.98   11.90
   1  10 -13  150.08   12.01
   1  10 -14   80.00    7.59
  -1  10 -14   42.81    6.34
  -1  10 -15    4.02    3.29
  -1  10 -16    5.51    2.95
  -1  10 -17  146.23    9.35
  -2 -10   0  128.98   13.57
   2 -10  -1   41.51    7.15
  -2 -10   1   35.51    8.32
   2 -10  -2   25.16    6.31
  -2 -10   2   19.96    6.73
  -2 -10   3   89.02   11.02
  -2 -10  -3   97.32   11.59
   2 -10  -3   60.76    9.22
   2 -10  -4  292.42   21.02
  -2 -10   4  288.49   21.17
  -2 -10  -4  280.76   21.08
  -2  10  -4  243.18   16.95
   2  10   5   91.15   22.57
  -2  10   5   71.07   19.54
   2 -10  -5   58.04    9.61
  -2 -10   5   49.35    8.99
  -2 -10  -5   73.35   10.09
  -2  10  -5   82.40    7.81
   2 -10  -6   31.28    7.47
   2  10   6   19.51   13.41
  -2  10   6   31.85   15.44
  -2 -10   6   29.07    7.52
  -2 -10  -6   25.38    7.39
   2 -10   6   27.57    7.25
   2 -10  -6   32.75    7.59
  -2  10  -6   31.11    5.46
  -2 -10   7  146.19   13.85
  -2 -10  -7  126.58   13.35
   2 -10  -7  142.09   14.02
   2 -10   7  110.76   12.02
   2 -10  -7  140.21   13.42
  -2  10  -7  125.29   10.90
   2 -10  -8   77.96   10.34
  -2 -10   8   52.25    9.13
  -2 -10  -8   71.41   10.33
   2 -10   8   62.20    8.60
   2 -10  -8   54.43    9.09
  -2  10  -8   82.28    8.43
   2 -10  -9   31.96    7.86
  -2 -10   9   24.15    6.93
  -2 -10  -9   19.26    6.47
   2 -10   9   14.34    5.08
   2 -10  -9   36.77    7.02
  -2  10  -9   28.02    5.60
   2 -10 -10  135.93   13.84
   2 -10 -10  116.11   11.45
  -2  10 -10  148.24   11.74
  -2 -10 -10  132.91   13.37
   2 -10 -11  144.21   13.81
  -2  10 -11  116.99   11.16
   2  10 -11  154.20   11.99
   2 -10 -12  119.69   11.92
  -2  10 -12  104.03   10.00
   2  10 -12  113.02   10.13
  -2  10 -13   86.35    8.47
   2  10 -13   74.70    8.12
   2 -10 -14   62.78    7.71
  -2  10 -14   56.01    6.65
  -2  10 -15   63.97    6.67
  -2  10 -16    0.24    2.47
   2  10 -16    1.97    2.60
  -2  10 -17    5.51    1.99
   2  10 -17    5.52    1.97
  -3 -10   0   17.37    7.03
   3 -10  -1  226.60   17.71
  -3 -10   1  243.66   19.42
   3 -10  -2   70.55    9.41
  -3 -10   2   70.78   10.40
   3 -10  -3   79.20   10.58
  -3 -10   3   62.95   10.00
  -3 -10  -3   82.11   11.24
   3 -10  -4   18.05    6.37
  -3 -10   4   19.77    7.03
  -3 -10  -4   11.97    6.65
   3 -10  -5    9.34    6.20
  -3 -10   5   14.28    6.26
  -3 -10  -5    6.31    6.45
  -3  10  -5   13.15    3.74
  -3 -10   6  200.55   16.61
  -3 -10  -6  176.87   16.27
   3 -10  -6  190.16   16.79
  -3  10  -6  148.59   12.48
  -3 -10   7  304.05   23.30
  -3 -10  -7  347.30   24.19
   3 -10  -7  362.60   25.04
   3 -10   7  327.43   22.75
   3 -10  -7  307.84   22.75
  -3  10  -7  320.96   20.70
   3 -10  -8   13.07    6.28
  -3 -10   8    8.64    5.95
  -3 -10  -8   14.25    6.31
   3 -10   8   15.11    5.40
   3 -10  -8   15.90    5.90
  -3  10  -8   22.15    5.20
   3 -10  -9   57.78    9.58
  -3 -10   9   45.38    8.37
  -3 -10  -9   35.14    8.29
   3 -10  -9   52.77    7.80
  -3  10  -9   52.83    6.97
   3 -10 -10   42.97    8.75
  -3 -10 -10   48.05    8.49
   3 -10 -10   36.01    6.27
  -3  10 -10   47.21    6.74
   3 -10 -11   85.19   10.98
  -3  10 -11  105.43    9.55
   3 -10 -12   81.44   10.00
   3  10 -12   91.30    8.63
  -3  10 -13   29.87    5.50
  -3  10 -14   21.68    4.48
  -3  10 -15  155.33   10.94
   3  10 -15  156.47   11.04
  -3  10 -16    8.88    2.63
   3  10 -16    5.74    2.66
  -4 -10   0  310.30   23.57
  -4 -10   1  167.91   16.21
   4 -10  -1  166.06   14.44
   4 -10  -2   24.07    6.31
  -4 -10   2   26.01    7.85
   4 -10  -3    1.38    5.22
  -4 -10   3    3.60    6.23
  -4 -10  -3   -2.21    6.22
  -4 -10   4  197.75   18.65
   4 -10  -4  229.75   19.32
  -4 -10   5  427.09   28.80
  -4 -10  -5  384.99   28.31
   4 -10  -5  419.85   29.16
  -4 -10  -6  119.23   13.30
   4 -10  -6  109.58   13.18
  -4  10  -6   97.84    9.11
  -4 -10   6  100.44   12.30
   4 -10  -7   15.63    7.31
  -4 -10   7    8.62    5.99
  -4 -10  -7   17.46    7.01
  -4  10  -7   16.65    4.44
   4 -10  -8   88.49   11.59
   4 -10   8   66.50    8.53
   4 -10  -8   80.03    9.81
  -4 -10   8   76.02   11.02
  -4 -10  -8   62.11   10.40
  -4  10  -8   62.75    7.47
   4 -10  -9  190.14   16.52
   4 -10  -9  134.04   12.89
  -4  10  -9  204.05   13.47
  -4 -10   9  126.26   14.68
  -4 -10  -9  167.42   16.20
   4 -10 -10   62.50   10.01
  -4 -10 -10   74.95   10.55
   4 -10 -10   49.67    7.03
  -4  10 -10   72.98    7.82
   4 -10 -11   40.49    7.96
  -4  10 -11   27.07    5.35
   4 -10 -12   60.62    9.11
  -4  10 -12   81.12    8.04
  -4  10 -13  155.23   11.68
  -4  10 -14   90.24    8.09
   4  10 -14  104.19    8.57
   4 -10 -15   20.76    4.40
  -4  10 -15   19.69    3.49
   4  10 -15   14.10    3.52
  -4  10 -16   10.91    2.60
   4  10 -16   20.05    3.17
  -5 -10   0 1017.03   59.10
  -5 -10   1   45.28    9.33
  -5 -10   2  175.76   16.53
   5 -10  -2  144.79   14.38
  -5 -10   3  687.40   44.71
   5 -10  -3  682.24   44.20
  -5 -10  -4  671.60   42.47
   5 -10  -4  641.76   42.10
  -5 -10   4  724.41   42.84
   5 -10  -5  189.13   18.53
  -5 -10   5  209.69   18.63
  -5 -10  -5  229.65   19.27
   5 -10  -6   55.38   10.05
  -5 -10   6   50.62    9.76
  -5 -10  -6   48.06    9.78
   5 -10  -7   23.29    8.07
  -5 -10   7   38.01    9.00
  -5 -10  -7   32.56    8.50
  -5  10  -7   21.09    4.50
   5 -10  -8  339.13   26.01
   5 -10   8  339.20   22.51
  -5  10  -8  363.01   21.63
  -5 -10   8  326.02   25.64
  -5 -10  -8  366.67   26.48
   5 -10  -9  133.89   14.30
   5 -10  -9  111.17   11.06
  -5  10  -9  120.82   10.22
  -5 -10  -9  118.31   14.06
   5 -10 -10    2.80    5.63
  -5 -10 -10    2.08    6.47
   5 -10 -10    4.04    3.55
  -5  10 -10    5.81    3.92
   5 -10 -11  306.21   23.84
  -5  10 -11  380.44   21.73
   5 -10 -12  289.90   19.62
  -5  10 -12  235.17   16.15
   5 -10 -13   26.00    6.23
  -5  10 -13   26.63    4.62
   5  10 -13   29.09    5.04
  -5  10 -14   19.06    3.76
   5  10 -14   16.36    3.88
   5 -10 -15   22.53    4.31
  -5  10 -15   14.67    3.13
   5  10 -15   16.48    3.34
   5  10 -16   63.04    5.22
  -6 -10   0   32.80    9.18
  -6 -10   1  141.38   15.75
   6 -10  -2  485.91   31.35
  -6 -10   2  476.01   33.13
   6 -10  -3   74.88   11.29
  -6 -10   3   98.23   13.03
  -6 -10  -3  100.77   12.96
   6 -10  -4  994.90   61.50
  -6 -10   4 1025.83   61.60
  -6 -10  -4 1197.97   63.23
   6 -10  -5  136.09   15.51
  -6 -10   5  147.22   15.59
  -6 -10  -5  128.17   15.45
   6 -10  -6  113.02   14.07
  -6 -10   6  112.11   14.11
  -6 -10  -6  132.48   14.81
   6 -10  -7   83.87   12.23
  -6 -10   7   79.08   12.43
  -6 -10  -7   87.45   12.75
   6 -10  -8   31.69    8.77
  -6 -10   8   44.78    9.92
  -6 -10  -8   41.36    9.80
  -6  10  -8   34.49    4.97
   6 -10  -9   93.64   11.98
   6 -10  -9   79.20    8.93
  -6 -10  -9   66.87   11.52
  -6  10  -9   95.24    8.19
   6 -10 -10  582.15   35.29
   6 -10 -10  501.57   30.23
  -6  10 -10  563.58   30.44
   6 -10 -11   95.65   11.09
  -6  10 -11   81.56    7.67
   6 -10 -12  306.67   20.74
  -6  10 -12  283.24   17.68
   6 -10 -13   66.34    8.09
  -6  10 -13   48.35    5.65
   6  10 -13   68.74    6.47
  -6  10 -14   25.08    3.61
   6  10 -14   23.93    4.12
   6 -10 -15   29.87    4.37
   6  10 -15   26.80    3.73
  -7 -10   0    7.92    7.89
  -7 -10   1   48.20   10.85
   7 -10  -2  471.10   31.03
  -7 -10   2  496.56   34.16
   7 -10  -3  696.93   43.92
  -7 -10   3  713.32   45.38
  -7 -10  -3  738.26   45.81
   7 -10  -4    8.56    7.24
  -7 -10   4   14.01    7.73
  -7 -10  -4    4.42    7.40
  -7 -10   5  520.32   35.17
  -7 -10  -5  582.24   36.33
   7 -10  -6  458.01   33.91
  -7 -10   6  499.96   34.21
  -7 -10  -6  492.14   34.19
   7 -10  -7    7.19    6.86
  -7 -10   7   -0.88    7.50
  -7 -10  -7    4.43    7.54
   7 -10  -8   11.82    7.15
  -7 -10   8   15.66    8.09
  -7 -10  -8   13.58    7.81
   7 -10  -9  110.50   13.34
  -7 -10  -9  104.50   13.15
   7 -10 -10  250.64   19.34
  -7  10 -10  224.12   14.56
   7 -10 -11  508.15   29.63
  -7  10 -11  423.17   24.74
   7 -10 -12   56.61    7.84
  -7  10 -12   27.07    4.08
   7 -10 -13   34.80    5.91
   7  10 -13   34.41    4.67
  -7  10 -13   26.73    3.70
   7  10 -14   40.66    4.59
   7 -10 -15    4.46    2.35
   7  10 -15    3.48    2.05
  -8 -10   0  176.44   18.52
  -8 -10   1  159.42   17.88
  -8 -10   2    0.94    8.11
   8 -10  -3  120.55   14.09
  -8 -10   3  161.15   17.84
  -8 -10  -3  160.19   17.67
   8 -10  -4  147.27   16.27
  -8 -10   4  161.13   18.01
  -8 -10  -4  175.51   18.28
   8 -10  -5  219.27   19.92
  -8 -10   5  184.07   19.32
  -8 -10  -5  184.63   19.64
   8 -10  -6    5.52    7.18
  -8 -10   6   11.85    8.11
  -8 -10  -6    3.70    7.66
   8 -10  -7  147.17   16.64
  -8 -10   7  170.00   17.46
  -8 -10  -7  152.47   17.10
   8 -10  -8   86.61   12.58
  -8 -10  -8   98.14   13.02
  -8 -10   8  117.91   13.52
   8 -10  -9   18.94    6.95
  -8 -10  -9   21.09    6.62
   8 -10 -10  119.54   12.66
   8 -10 -11  256.08   18.74
   8 -10 -12   20.51    5.55
   8 -10 -13   13.76    4.18
   8  10 -13   11.07    3.00
   8 -10 -14   75.13    6.42
   8  10 -14   53.30    5.05
  -9 -10   0   91.37   15.05
  -9 -10   1  548.30   38.47
  -9 -10   2  145.28   17.89
   9 -10  -3    9.38    5.70
  -9 -10   3    0.97    8.75
  -9 -10  -3    5.93    8.79
   9 -10  -4   57.71    9.87
  -9 -10   4   34.15   10.58
  -9 -10  -4   24.16   10.08
   9 -10  -5   63.76   10.85
  -9 -10   5   48.87   11.11
  -9 -10  -5   49.29   11.30
   9 -10  -6  253.34   20.90
  -9 -10   6  222.29   20.29
  -9 -10  -6  192.42   19.75
   9 -10  -7  504.73   35.63
  -9 -10  -7  499.64   35.04
   9 -10  -8   11.88    6.43
  -9 -10   8   20.01    5.96
  -9 -10  -8   17.13    6.80
   9 -10  -9  136.87   13.55
  -9 -10  -9  111.66   10.40
   9 -10 -10  145.57   13.39
   9 -10 -11    0.46    4.17
   9 -10 -12   25.07    5.27
   9 -10 -13  141.79    9.81
   9  10 -13  117.65    8.36
 -10 -10   0  700.50   46.09
 -10 -10   1   90.51   14.11
 -10 -10   2  228.45   21.41
 -10 -10   3    8.12    8.23
 -10 -10  -3   13.87    9.31
  10 -10  -4   26.26    6.49
 -10 -10   4   25.27    8.00
 -10 -10  -4   24.51    8.66
  10 -10  -5  164.36   15.48
 -10 -10   5  144.09   15.82
 -10 -10  -5  152.07   16.43
  10 -10  -6  483.68   32.43
 -10 -10   6  549.14   32.85
 -10 -10  -6  451.80   32.04
  10 -10  -7   -0.68    5.56
 -10 -10   7    2.58    5.47
 -10 -10  -7    1.12    5.36
  10 -10  -8  459.10   28.83
 -10 -10   8  424.26   25.43
 -10 -10  -8  419.80   26.12
  10 -10  -9  161.01   13.34
  10 -10  -9  117.46    8.95
  10 -10 -10   39.60    6.81
  10 -10 -11    3.26    3.78
  10 -10 -12   33.99    4.89
 -11 -10   0  326.28   25.71
 -11 -10   1  280.21   23.62
 -11 -10   2   49.57    9.83
 -11 -10   3    5.06    7.13
 -11 -10  -3   12.10    7.89
 -11 -10   4  342.14   24.65
 -11 -10  -4  347.99   25.16
  11 -10  -5   13.51    5.34
 -11 -10   5    6.27    5.71
 -11 -10  -5    9.57    6.18
  11 -10  -6    8.70    4.80
 -11 -10   6   18.06    5.24
 -11 -10  -6   21.95    5.62
 -11 -10  -6    5.95    3.43
  11 -10  -7  299.85   20.08
 -11 -10   7  266.08   17.83
 -11 -10  -7  282.39   18.52
  11 -10  -8  219.58   15.89
 -11 -10  -8  202.77   13.29
  11 -10  -9   49.16    6.76
  11 -10 -10   21.11    4.57
  11 -10 -11   22.77    3.65
 -12 -10   0   61.76    9.86
 -12 -10   1   72.76   10.42
 -12 -10   2   18.30    6.69
 -12 -10   3  130.77   12.17
 -12 -10  -3   98.95   11.46
 -12 -10   4  167.53   13.76
 -12 -10  -4  167.28   14.10
 -12 -10   5   47.52    6.76
 -12 -10  -5   51.93    7.05
 -12 -10  -5   43.07    5.39
  12 -10  -6    8.09    3.41
 -12 -10   6    5.93    3.35
 -12 -10  -6    5.17    3.67
 -12 -10  -6    5.68    2.37
  12 -10  -7   31.77    5.05
 -12 -10  -7   37.40    4.55
  12 -10  -8   30.41    4.61
  12 -10  -9   41.14    4.80
 -13 -10   0    2.54    4.20
 -13 -10   1    3.31    4.29
 -13 -10   2   99.10    9.55
 -13 -10  -3  129.42   10.18
 -13 -10   3  149.29   11.30
 -13 -10  -3  150.77   11.55
 -13 -10   4    3.86    3.05
 -13 -10  -4    6.00    3.56
 -13 -10  -4    0.23    2.61
 -13 -10  -5   52.36    5.10
 -13 -10  -5   66.74    6.35
 -14 -10   0  177.78   12.17
 -14 -10   0  197.57   12.69
 -14 -10   1   13.66    3.50
 -14 -10  -1    3.08    2.69
 -14 -10  -2    5.15    2.56
 -14 -10  -3   22.39    3.15
 -14 -10   5   11.71    2.58
   0 -11   0    0.67    5.49
   0 -11   1  370.48   25.46
   0 -11  -1  350.29   25.38
   0 -11   2   47.71    8.43
   0 -11   3 1364.61   76.74
   0 -11  -3 1478.16   77.69
   0 -11   4   11.91    5.93
   0 -11  -4   11.11    6.09
   0  11  -4    2.59    2.74
   0 -11   5 1046.37   59.06
   0 -11  -5 1125.87   59.96
   0  11  -5 1032.63   55.66
   0 -11   6   56.67    8.69
   0 -11  -6   59.73    9.03
   0  11  -6   61.42    6.95
   0 -11   7   86.45   10.55
   0 -11  -7   82.38   10.76
   0 -11   8   23.87    6.34
   0 -11  -8   28.07    6.86
   0  11  -8   41.70    5.84
   0 -11  -9  422.51   27.36
   0  11  -9  443.54   25.80
   0  11 -10   28.94    5.14
   0  11 -11  831.92   44.66
   0  11 -12   13.26    3.99
   0  11 -13  175.77   11.87
   0  11 -14    2.86    2.19
  -1 -11   0  181.24   15.95
   1 -11   0  165.90   15.64
  -1 -11   1   29.81    7.17
  -1 -11  -1   43.68    8.36
   1 -11   1   41.21    7.82
   1 -11  -1   22.58    7.36
  -1 -11   2  342.68   24.65
   1 -11   2  358.10   25.07
  -1 -11   3   33.52    7.48
  -1 -11  -3   52.71    8.81
   1 -11   3   35.75    7.54
   1 -11  -3   43.74    8.40
  -1 -11   4 1415.79   79.57
  -1 -11  -4 1593.06   80.86
   1 -11   4 1464.17   79.77
   1 -11  -4 1460.52   80.11
  -1 -11   5   57.82    8.43
  -1 -11  -5   48.75    8.34
   1 -11   5   34.33    7.17
   1 -11  -5   45.56    8.14
  -1  11  -5   41.04    5.56
  -1 -11   6  158.60   14.46
   1 -11  -6  157.23   14.62
  -1 -11  -6  171.16   15.15
   1 -11   6  150.40   13.85
   1 -11  -6  167.81   14.77
  -1  11  -6  157.09   11.93
   1 -11  -7   33.63    7.50
  -1 -11   7   20.68    6.91
  -1 -11  -7   29.28    7.48
   1 -11   7   24.81    6.37
   1 -11  -7   23.28    6.71
  -1  11  -7   29.52    5.04
   1  11  -7   40.91    5.87
  -1 -11  -8  114.34   12.05
   1 -11   8   92.96   10.33
   1 -11  -8  107.89   11.68
   1 -11  -8   96.68   10.82
  -1  11  -8  129.96    9.88
   1  11  -8  114.27    9.79
  -1 -11   8  100.51   11.07
   1 -11  -9  142.42   13.17
  -1  11  -9  197.14   12.90
   1  11  -9  149.92   12.33
  -1 -11  -9  198.44   15.31
  -1  11 -10  457.85   27.51
   1  11 -10  506.73   28.09
  -1  11 -11   31.93    4.97
   1  11 -11   36.52    5.45
  -1  11 -12  494.94   27.70
   1  11 -12  490.72   27.89
  -1  11 -13   41.04    5.15
   1  11 -13   52.55    5.65
  -1  11 -14    2.48    2.05
   1  11 -14    2.93    2.51
  -2 -11   0  116.70   12.98
   2 -11   0  123.87   13.43
  -2 -11   1   25.64    7.46
  -2 -11  -1   27.28    7.61
   2 -11   1   10.50    6.72
   2 -11  -1   12.74    6.65
  -2 -11   2  268.12   19.95
   2 -11   2  215.73   18.99
  -2 -11   3  339.86   25.09
  -2 -11  -3  390.08   26.42
   2 -11   3  405.25   26.34
   2 -11  -3  335.89   25.44
   2 -11  -4  144.81   14.57
  -2 -11   4  190.21   16.04
  -2 -11  -4  186.66   16.29
   2 -11   4  163.17   15.36
   2 -11  -4  168.52   15.48
  -2 -11   5  236.16   18.33
  -2 -11  -5  222.32   18.21
   2 -11  -5  229.13   18.31
   2 -11   5  178.33   16.63
   2 -11  -5  247.43   18.48
  -2 -11   6  164.49   15.36
  -2 -11  -6  185.86   16.21
   2 -11  -6  205.28   16.70
   2 -11   6  187.73   15.38
   2 -11  -6  171.31   15.22
  -2  11  -6  174.58   12.61
   2 -11  -7   37.21    8.06
  -2 -11   7   46.43    8.20
  -2 -11  -7   43.22    8.13
   2 -11   7   26.32    6.38
   2 -11  -7   39.28    7.40
  -2  11  -7   38.22    5.37
   2 -11  -8  116.43   12.33
   2 -11   8  114.04   10.78
   2 -11  -8   98.17   10.76
  -2  11  -8  120.19    9.63
  -2 -11   8  110.67   12.06
  -2 -11  -8  111.20   12.16
   2 -11  -9   15.24    6.00
  -2 -11  -9   14.67    6.03
   2 -11  -9   15.25    5.14
  -2  11  -9   24.50    4.45
   2  11  -9   22.99    5.01
   2 -11 -10  102.18   11.20
  -2  11 -10   89.30    8.55
  -2  11 -11  348.28   20.73
   2  11 -11  348.60   21.19
  -2  11 -12   24.87    4.21
   2  11 -12   37.73    5.07
  -2  11 -13    3.49    2.48
   2  11 -13    1.35    2.61
  -2  11 -14    3.11    1.99
   2  11 -14    6.00    2.48
  -3 -11   0  716.77   43.50
  -3 -11   1   95.20   11.76
  -3 -11  -1   93.70   12.33
  -3 -11   2   19.96    7.07
   3 -11  -3   36.40    7.33
  -3 -11   3   46.95    8.74
  -3 -11  -3   42.99    9.01
   3 -11   3   26.51    8.33
   3 -11  -4    4.72    5.03
  -3 -11   4    4.71    6.22
  -3 -11  -4   -2.10    6.17
   3 -11   4    3.96    5.87
   3 -11  -4    0.68    6.49
   3 -11  -5   21.10    6.93
  -3 -11   5   23.91    7.57
  -3 -11  -5   36.02    8.42
   3 -11   5   20.30    6.77
   3 -11  -5   20.59    6.96
   3 -11  -6    4.97    5.57
  -3 -11   6    9.15    5.88
  -3 -11  -6   16.35    6.51
   3 -11   6   17.84    5.84
   3 -11  -6   10.74    5.66
   3 -11  -7   18.19    6.80
  -3 -11   7   20.39    7.37
  -3 -11  -7   33.26    7.84
   3 -11   7   24.32    6.14
   3 -11  -7   23.24    6.22
   3 -11  -8  443.42   29.09
   3 -11   8  403.18   25.70
   3 -11  -8  429.21   26.81
  -3  11  -8  398.98   24.47
  -3 -11   8  501.18   29.34
  -3 -11  -8  475.63   29.55
   3 -11  -9  100.81   10.98
   3 -11  -9   96.20    9.27
  -3 -11  -9   73.90   10.16
  -3  11  -9   74.56    7.38
   3 -11 -10   82.35   10.40
  -3  11 -10   83.65    7.54
   3  11 -10   89.43    8.30
   3 -11 -11    9.21    5.32
  -3  11 -11    7.29    3.04
   3  11 -11   11.81    3.85
  -3  11 -12    3.12    2.60
   3  11 -12    3.30    3.18
  -3  11 -13   27.19    3.60
   3  11 -13   29.70    4.26
   3  11 -14   60.43    5.52
  -4 -11   0  449.48   30.59
  -4 -11   1  199.55   17.75
  -4 -11  -1  192.77   17.67
   4 -11  -2   64.82    8.47
  -4 -11   2   43.56    9.26
  -4 -11   3   95.41   12.18
  -4 -11  -3  100.18   12.71
   4 -11  -3   86.77   10.61
   4 -11  -4  363.86   27.55
  -4 -11   4  433.63   28.74
  -4 -11  -4  456.93   29.53
   4 -11  -5   25.05    7.36
  -4 -11   5   27.06    7.75
  -4 -11  -5   38.24    8.70
   4 -11   5   17.47    6.62
   4 -11  -5   25.46    7.38
   4 -11  -6   15.71    6.61
  -4 -11   6   22.03    7.49
  -4 -11  -6   27.85    7.94
   4 -11   6   19.81    6.18
   4 -11  -6   17.79    6.15
   4 -11  -7  179.24   17.17
   4 -11   7  185.90   14.90
   4 -11  -7  189.30   15.46
  -4 -11   7  201.67   17.32
  -4 -11  -7  238.38   18.58
   4 -11  -8  326.17   24.25
   4 -11  -8  391.48   22.60
  -4 -11   8  396.47   25.16
  -4 -11  -8  353.16   24.77
   4 -11  -9   52.34    6.51
   4 -11  -9   51.15    8.48
  -4 -11  -9   32.29    7.75
  -4  11  -9   26.80    4.40
   4 -11 -10   38.39    7.57
  -4  11 -10   31.00    4.36
   4 -11 -11  101.16   10.47
  -4  11 -11   96.34    7.67
   4  11 -11  113.72    8.89
   4 -11 -12  103.30    9.82
  -4  11 -12   91.77    7.15
   4  11 -12  106.18    8.32
   4  11 -13   51.58    5.40
   4  11 -14   21.34    3.29
  -5 -11   0    8.33    6.74
  -5 -11   1  338.53   24.19
  -5 -11  -1  272.67   23.01
  -5 -11   2  117.76   13.75
   5 -11  -3  140.02   13.82
  -5 -11   3  157.35   15.63
  -5 -11  -3  136.77   15.11
   5 -11  -4  532.96   35.98
  -5 -11   4  563.58   36.65
  -5 -11  -4  630.01   37.76
  -5 -11   5  319.64   23.80
  -5 -11  -5  358.53   24.76
   5 -11  -6   15.55    7.45
  -5 -11   6   12.37    6.73
  -5 -11  -6   22.58    7.81
   5 -11   6   21.99    5.98
   5 -11  -6   18.15    6.17
   5 -11  -7  102.65   12.77
   5 -11   7   99.60    9.88
   5 -11  -7  101.89   10.57
  -5 -11   7  104.12   12.91
  -5 -11  -7   98.17   12.73
   5 -11  -8   11.46    6.32
  -5 -11   8    2.65    5.80
  -5 -11  -8    2.13    6.11
   5 -11   8    3.92    3.48
   5 -11  -8    5.49    4.25
   5 -11  -9  234.44   18.26
   5 -11  -9  243.12   15.09
   5 -11 -10  221.40   17.50
   5 -11 -11   10.23    4.74
   5  11 -11   12.55    3.86
   5 -11 -12  161.29   12.68
   5  11 -12  164.26   11.22
  -6 -11   0  532.94   35.51
  -6 -11   1  161.39   16.48
  -6 -11   2   99.10   12.86
   6 -11  -3  798.61   48.57
  -6 -11   3  908.84   51.90
  -6 -11  -3  907.28   52.18
   6 -11  -4  134.27   14.18
  -6 -11   4  133.19   15.08
  -6 -11  -4  160.07   16.37
   6 -11  -5  556.34   38.28
  -6 -11   5  639.51   39.45
  -6 -11  -5  653.82   39.99
   6 -11   6  231.07   16.02
  -6 -11   6  175.74   17.22
  -6 -11  -6  195.26   18.07
   6 -11  -7    0.76    5.90
  -6 -11   7    5.14    6.37
  -6 -11  -7   11.51    7.31
   6 -11   7    7.89    4.03
   6 -11  -7    5.74    4.56
   6 -11  -8  108.75   12.66
   6 -11  -8  140.86   10.48
  -6 -11   8  110.22   11.99
  -6 -11  -8  111.38   13.05
   6 -11  -9  239.55   18.48
   6 -11  -9  222.57   14.54
  -6 -11  -9  212.30   16.92
   6 -11 -10   19.08    5.86
   6 -11 -11  447.00   26.26
   6  11 -11  401.94   23.52
   6 -11 -12  141.06   11.24
  -7 -11   0   53.63   10.50
  -7 -11   1   98.73   13.23
  -7 -11   2  125.33   14.65
  -7 -11   3   28.58    8.97
  -7 -11  -3   27.98    9.30
   7 -11  -4  869.74   51.40
  -7 -11   4  940.24   54.29
  -7 -11  -4  911.85   54.42
   7 -11  -5   25.42    7.92
  -7 -11   5   27.22    8.81
  -7 -11  -5   39.99    9.64
   7 -11  -6    5.20    5.35
  -7 -11   6    8.39    6.56
  -7 -11  -6   -0.80    6.73
   7 -11  -7   76.90   11.28
   7 -11   7  106.60    9.09
   7 -11  -7  116.34   10.44
  -7 -11  -7   81.93   12.22
  -7 -11   7   93.90   12.08
   7 -11  -8   28.05    7.17
  -7 -11   8   27.98    7.06
  -7 -11  -8   25.50    7.46
   7 -11  -8   40.68    5.67
   7 -11  -9   40.87    7.86
   7 -11  -9   31.33    4.43
   7 -11 -10  177.50   14.49
   7 -11 -11  128.63   11.04
   7 -11 -12  272.86   16.93
  -8 -11   0    9.60    8.08
  -8 -11   1  109.44   14.11
  -8 -11   2  246.60   21.68
  -8 -11   3   91.90   13.39
  -8 -11  -3   94.93   13.72
   8 -11  -4   64.07    7.98
  -8 -11   4   29.95    9.27
  -8 -11  -4   40.74   10.21
   8 -11  -5    3.54    5.24
  -8 -11   5    5.32    6.23
  -8 -11  -5    0.81    6.94
   8 -11  -6  151.10   14.89
  -8 -11   6  161.85   15.86
  -8 -11  -6  174.42   16.54
   8 -11  -7  130.66   13.00
   8 -11  -7  143.62   10.69
  -8 -11   7  116.73   11.87
  -8 -11  -7  118.72   12.89
   8 -11  -8    7.99    5.60
  -8 -11  -8    8.72    4.73
   8 -11  -8    5.06    3.46
   8 -11  -9    4.92    4.45
   8 -11 -10  121.10   10.64
   8 -11 -11  105.57    8.81
  -9 -11   0  891.83   53.91
  -9 -11   1  131.28   15.33
  -9 -11   2   44.33   10.07
  -9 -11   3   52.83   10.23
  -9 -11  -3   54.87   10.79
  -9 -11   4   45.82    9.16
  -9 -11  -4   44.56    9.89
   9 -11  -5   45.23    6.69
  -9 -11   5   65.36   10.04
  -9 -11  -5   57.68   10.15
   9 -11  -6  198.27   15.21
  -9 -11   6  196.90   15.76
  -9 -11  -6  180.94   16.10
   9 -11   7   44.58    4.99
   9 -11  -7   52.81    7.65
   9 -11  -7   60.81    6.62
  -9 -11  -7   42.57    7.11
  -9 -11   7   56.84    6.86
   9 -11  -8  519.55   25.32
   9 -11  -8  333.89   20.78
   9 -11  -9  102.90    9.35
   9 -11 -10    4.86    2.88
 -10 -11   0  335.27   24.85
 -10 -11   1  570.53   36.59
 -10 -11   2   25.72    7.79
 -10 -11   3   26.20    7.68
 -10 -11  -3   21.89    7.70
 -10 -11   4  267.31   18.72
 -10 -11  -4  214.27   18.41
 -10 -11   5  160.34   12.50
 -10 -11  -5  197.16   13.91
  10 -11   6   73.98    6.49
 -10 -11   6   81.52    7.99
 -10 -11  -6   68.42    8.05
  10 -11  -7  455.45   24.88
  10 -11  -7  424.34   24.05
 -10 -11  -7  428.04   24.28
 -11 -11   0  425.59   27.17
 -11 -11   1  146.47   13.18
 -11 -11   2   28.96    6.55
 -11 -11   3   23.09    5.61
 -11 -11  -3   34.34    6.64
 -11 -11   4    9.23    4.26
 -11 -11  -4   -1.56    4.34
 -11 -11  -4    4.05    2.23
 -11 -11   5  242.50   14.70
 -11 -11  -5  205.43   14.63
  11 -11  -6  131.55    9.39
 -11 -11  -6  128.31    9.07
 -12 -11   0  185.49   13.22
 -12 -11   1   17.22    4.56
 -12 -11   2   33.35    5.06
 -12 -11  -2   33.07    4.07
 -12 -11  -2   40.83    5.52
 -12 -11   3  112.86    8.84
 -12 -11  -3  118.48    9.11
 -12 -11   4   65.37    5.62
 -12 -11  -4   58.05    5.77
 -13 -11   0    7.66    2.33
 -13 -11   1   18.56    2.90
   0 -12   0  729.59   43.42
   0 -12   1  106.30   11.82
   0 -12  -1   97.43   11.49
   0 -12   2  243.00   18.88
   0 -12   3    6.02    5.20
   0 -12  -3   17.26    6.33
   0 -12   4   11.08    5.80
   0 -12  -4    7.80    6.00
   0 -12   5   -1.66    5.43
   0 -12  -5    7.49    5.60
   0 -12   6   34.94    7.04
   0 -12  -6   38.05    7.29
   0 -12   7   -4.05    4.55
   0 -12  -7   -2.50    5.06
   0  12  -8  227.62   14.52
   0 -12  -8  272.07   17.86
   0  12  -9  123.52    8.76
  -1 -12   0   20.19    6.78
   1 -12   0   24.79    7.42
  -1 -12   1  202.37   16.80
  -1 -12  -1  186.60   16.31
   1 -12   1  174.69   15.97
   1 -12  -1  183.23   16.34
  -1 -12   2  240.95   19.63
   1 -12   2  295.68   20.79
  -1 -12   3  138.81   13.12
  -1 -12  -3  115.31   12.60
   1 -12   3  106.40   12.02
   1 -12  -3  137.60   13.10
  -1 -12   4   23.58    6.87
  -1 -12  -4   25.02    6.93
   1 -12   4   16.19    6.03
   1 -12  -4   13.57    6.11
  -1 -12   5    6.81    5.17
  -1 -12  -5    9.46    5.91
   1 -12   5   -0.54    5.22
   1 -12  -5    6.76    5.36
  -1 -12  -6   55.88    8.60
   1 -12   6   52.82    7.97
   1 -12  -6   58.79    8.37
  -1 -12   6   75.30    9.11
   1 -12   7  189.79   13.73
   1 -12  -7  163.47   13.61
   1  12  -7  133.46   10.81
  -1 -12   7  182.19   14.19
  -1 -12  -7  187.50   14.72
  -1 -12  -8   52.35    8.30
   1 -12  -8   47.49    7.46
   1  12  -8   64.62    5.99
   1  12  -9   13.14    3.15
   1  12 -10   68.42    5.95
  -2 -12   0  520.61   32.39
   2 -12   0  477.44   31.99
  -2 -12   1   24.01    7.39
  -2 -12  -1   43.50    8.29
   2 -12   1   36.92    8.48
   2 -12  -1   28.57    7.62
  -2 -12   2  256.73   20.03
   2 -12   2  266.45   20.38
  -2 -12  -3   92.62   10.98
   2 -12   3   94.05   10.82
  -2 -12   3   64.54    9.92
   2 -12  -3   67.09    9.68
  -2 -12   4   66.74    9.45
  -2 -12  -4   61.83    9.34
   2 -12   4   48.93    8.44
   2 -12  -4   45.14    8.24
  -2 -12   5   51.38    8.61
   2 -12   5   60.02    8.74
   2 -12  -5   55.37    8.43
   2  12  -5   61.66    6.16
  -2 -12  -5   73.69    9.67
   2 -12   6  638.18   35.39
   2 -12  -6  595.51   35.40
   2  12  -6  547.96   32.45
  -2 -12   6  624.85   36.30
  -2 -12  -6  658.07   37.01
  -2 -12   7   26.34    6.84
  -2 -12  -7   44.86    8.15
   2 -12   7   47.01    6.90
   2 -12  -7   39.93    7.09
   2  12  -7   40.89    5.25
   2 -12  -8  191.19   13.62
   2  12  -8  162.15   11.83
  -2 -12  -8  186.09   15.00
   2  12  -9   51.01    5.46
   2  12 -10   18.24    3.37
  -3 -12   0   41.57    8.37
   3 -12   0   29.26    8.30
  -3 -12  -1  888.35   51.89
   3 -12   1  938.70   52.57
   3 -12  -1  873.92   51.95
  -3 -12   1  901.95   51.82
   3 -12   2   73.52   10.87
  -3 -12   2  103.06   11.56
  -3 -12   3   61.49    9.41
   3 -12   3   62.40    9.60
   3 -12  -3   68.08    9.94
  -3 -12  -3   78.67   10.62
  -3 -12   4   38.24    7.88
  -3 -12  -4   36.63    8.23
   3 -12   4   33.58    7.56
   3 -12  -4   31.56    7.21
   3  12  -4   29.47    4.56
   3 -12   5  178.44   14.41
   3 -12  -5  158.04   13.96
   3  12  -5  152.50   11.48
  -3 -12   5  168.31   15.07
  -3 -12  -5  187.38   15.70
   3 -12   6   70.88    8.35
  -3 -12   6   37.73    8.37
  -3 -12  -6   64.50    9.64
   3 -12  -6   52.16    7.67
   3  12  -6   41.89    5.71
   3 -12   7 1034.84   54.89
   3 -12  -7 1017.75   55.70
   3  12  -7  988.51   53.94
  -3 -12   7 1113.90   57.68
  -3 -12  -7 1106.59   58.31
   3 -12  -8  116.85    9.52
   3  12  -8  101.18    8.30
   3  12  -9   84.98    7.27
   3  12 -10   12.02    3.08
   4 -12   0  582.66   37.66
  -4 -12   0  600.66   37.23
   4 -12   1  230.25   19.89
   4 -12  -1  262.24   20.52
  -4 -12   1  265.23   20.08
  -4 -12  -1  234.42   19.63
   4 -12   2  382.68   26.91
  -4 -12   2  387.30   26.71
   4 -12   3  306.79   23.42
   4 -12  -3  339.58   23.88
  -4 -12   3  354.41   24.31
  -4 -12  -3  335.24   24.25
  -4 -12   4   10.85    6.30
  -4 -12  -4    6.66    6.21
   4 -12   4    9.85    5.61
   4 -12  -4    4.67    5.24
   4 -12   5  189.46   14.63
   4 -12  -5  141.76   13.61
  -4 -12   5  167.62   15.39
  -4 -12  -5  188.35   16.10
   4 -12   6  747.99   39.75
   4 -12  -6  676.99   39.78
   4  12  -6  629.73   37.56
  -4 -12   6  769.55   42.35
  -4 -12  -6  809.47   43.33
   4 -12   7  222.29   15.52
   4 -12  -7  261.95   16.92
   4  12  -7  243.50   15.45
  -4 -12   7  261.90   18.95
  -4 -12  -7  234.21   19.03
   4 -12  -8  216.59   13.95
   4  12  -8  212.55   13.57
  -4 -12  -8  181.20   15.66
   4  12  -9  101.89    8.00
   4  12 -10   71.96    6.20
   5 -12   0  119.24   14.21
  -5 -12   0  140.97   14.10
   5 -12   1  123.16   14.14
   5 -12  -1  125.25   14.26
  -5 -12   1  124.53   13.48
   5 -12   2  557.77   37.66
  -5 -12   2  654.36   38.33
   5 -12   3  144.25   13.87
   5 -12  -3   91.79   12.02
  -5 -12   3  100.50   12.48
  -5 -12  -3  144.13   14.33
   5 -12  -4   94.64   11.78
  -5 -12   4  132.20   13.68
  -5 -12  -4  130.96   13.97
  -5 -12   5   10.89    6.46
  -5 -12  -5   12.19    6.83
   5 -12   5   13.29    5.32
   5 -12  -5   10.07    5.15
   5 -12   6  512.41   28.05
   5 -12  -6  424.85   27.92
  -5 -12   6  467.64   30.59
  -5 -12  -6  497.42   31.39
   5 -12   7   86.16    8.00
   5 -12  -7  123.62    9.76
   5  12  -7  118.02    8.74
  -5 -12   7   96.30   10.63
  -5 -12  -7   99.55   11.66
   5 -12  -8   68.42    6.64
   5  12  -8   82.25    6.93
   5  12  -9   29.60    4.08
   5  12 -10  145.25    9.57
   6 -12   0  179.66   17.36
  -6 -12   0  175.50   16.65
   6 -12   1  212.99   20.11
   6 -12  -1  268.78   21.25
  -6 -12   1  259.07   20.43
   6 -12   2  447.21   30.32
  -6 -12   2  442.20   29.95
   6 -12   3   91.78   11.46
   6 -12  -3   79.65   10.74
  -6 -12   3  106.89   12.27
  -6 -12  -3   83.48   11.75
   6 -12   4   95.62   10.86
   6 -12  -4   97.52   10.96
  -6 -12   4  112.06   12.56
  -6 -12  -4   99.89   12.50
   6 -12  -5  225.23   16.76
  -6 -12   5  195.91   18.14
  -6 -12  -5  212.40   19.03
   6 -12   6   70.81    7.33
   6 -12  -6   76.33    8.15
  -6 -12  -6   69.43   10.23
  -6 -12   6   85.13   10.10
   6 -12   7   79.18    6.41
   6 -12  -7   88.90    7.71
  -6 -12   7   75.35    8.48
  -6 -12  -7   81.00    9.49
   6  12  -8   48.66    5.08
   6  12  -9   67.08    5.79
   7 -12   0  262.18   21.43
  -7 -12   0  241.14   20.15
  -7 -12   1    9.14    6.61
   7 -12   1    5.40    6.87
   7 -12  -1    6.08    6.76
  -7 -12   2   26.22    8.21
   7 -12   2   33.97    8.41
   7 -12   3  398.56   25.02
   7 -12  -3  332.43   23.95
  -7 -12   3  312.73   24.28
  -7 -12  -3  352.43   25.40
   7 -12  -4  123.71   12.21
  -7 -12   4  111.09   12.94
  -7 -12  -4  122.22   13.61
   7 -12   5   67.27    7.49
   7 -12  -5   67.37    8.01
  -7 -12  -5   57.43    9.59
  -7 -12   5   82.92    9.92
   7 -12   6   56.32    5.49
  -7 -12   6   54.61    7.44
  -7 -12  -6   29.38    6.88
   7 -12  -6   37.17    5.62
   7  12  -8   35.87    4.14
   8 -12   0   78.85   11.88
  -8 -12   0   86.39   11.37
  -8 -12   1   52.24    9.13
   8 -12   1   64.10    9.85
   8 -12  -1   65.73   10.05
  -8 -12   2   -1.23    5.24
   8 -12   2   -1.27    6.16
  -8 -12   3   22.69    6.94
  -8 -12  -3   21.45    7.15
   8 -12   3   19.33    6.41
   8 -12  -3   42.44    7.43
   8 -12   4  112.77    9.98
   8 -12  -4  100.62   10.11
  -8 -12   4   85.68   10.38
  -8 -12  -4   94.46   11.26
   8 -12  -5   72.78    7.87
  -8 -12  -5   64.64    8.99
  -8 -12   5   81.24    8.74
  -8 -12  -6   37.23    5.72
   8 -12  -6   41.03    5.03
  -9 -12   0   26.55    6.98
   9 -12   0   33.03    7.76
   9 -12   1  185.28   15.66
   9 -12  -1  189.01   15.72
  -9 -12   1  160.60   14.42
  -9 -12   2   33.38    6.80
   9 -12   2   25.14    6.21
  -9 -12   3    4.12    4.21
  -9 -12  -3    4.01    4.44
   9 -12   3   10.72    4.18
   9 -12  -3    9.71    4.56
  -9 -12   4   35.22    5.58
  -9 -12  -4   33.80    5.92
   9 -12   4   32.85    4.80
   9 -12  -4   31.19    5.38
  -9 -12  -5    1.66    2.89
   9 -12  -5   -0.26    2.44
  10 -12   0   70.62    8.14
 -10 -12   0   53.96    6.87
  10 -12   1   88.30    9.04
 -10 -12   1   86.36    8.21
  10 -12   2  149.85   11.65
 -10 -12   2  149.45   11.08
 -10 -12  -2  159.61   11.50
  10 -12  -3  133.87    9.50
 -10 -12   3  104.75    8.06
 -10 -12  -3  114.15    8.70
   0 -13   0   -1.79    6.54
   0 -13   1   74.84    9.80
   0 -13  -1   66.72    9.38
   0 -13   2   30.96    7.16
   0 -13   3    9.04    5.96
   0 -13  -3   17.27    6.49
   0 -13   4   -6.90    5.67
   0 -13  -4   -2.64    5.53
   0 -13   5   40.05    7.32
   0 -13  -5   43.58    7.50
   0 -13  -6   59.74    7.95
   1 -13   0  103.06   12.07
  -1 -13   0  122.08   12.41
   1 -13   1  134.54   12.63
   1 -13  -1  119.52   12.22
  -1 -13   1  122.82   12.33
  -1 -13  -1   94.31   11.37
   1 -13   2  159.38   14.70
  -1 -13   2  165.61   14.68
   1 -13   3  160.47   14.11
   1 -13  -3  131.05   13.04
  -1 -13   3  129.53   13.51
  -1 -13  -3  168.55   14.37
   1 -13  -4   81.56    9.79
   1 -13   4   67.38    9.39
  -1 -13   4   86.21   10.12
  -1 -13  -4   76.82    9.68
  -1 -13   5  227.32   15.94
  -1 -13  -5  168.13   14.87
   1 -13   5  158.20   13.99
   1 -13  -5  209.56   15.26
  -1 -13  -6  256.47   18.09
   1 -13  -6  249.24   17.28
   2 -13   0  187.79   16.60
  -2 -13   0  212.12   16.81
   2 -13   1  638.52   38.59
   2 -13  -1  612.99   38.16
  -2 -13   1  659.24   38.53
   2 -13   2  214.06   16.83
  -2 -13   2  174.04   15.86
  -2 -13   3   23.06    6.66
  -2 -13  -3   12.11    6.01
   2 -13   3   23.46    6.36
   2 -13  -3   20.10    6.37
   2 -13   4  185.94   15.67
   2 -13  -4  215.44   15.99
  -2 -13   4  227.00   17.07
  -2 -13  -4  176.20   16.05
   2 -13  -5  245.61   18.01
  -2 -13   5  274.69   19.41
  -2 -13  -5  226.95   18.77
  -2 -13  -6   83.37    9.92
   2 -13  -6  111.29    9.46
   3 -13   0 1875.51  102.32
  -3 -13   0 2027.17  102.62
   3 -13   1  162.72   14.71
   3 -13  -1  125.98   13.25
  -3 -13   1  142.30   13.91
  -3 -13   2    7.12    5.93
   3 -13   2    4.18    5.65
  -3 -13   3   18.00    6.71
  -3 -13  -3   11.21    5.78
   3 -13   3   14.28    5.84
   3 -13  -3   15.43    6.13
   3 -13   4  374.65   23.30
   3 -13  -4  315.80   22.55
  -3 -13   4  354.23   24.10
  -3 -13  -4  372.20   24.44
   3 -13   5   47.95    6.69
   3 -13  -5   65.18    7.57
  -3 -13  -5   46.99    7.99
  -3 -13   5   66.21    8.88
  -4 -13   0   -0.60    5.70
   4 -13   0   -3.13    5.88
   4 -13   1  367.98   25.22
   4 -13  -1  356.51   24.71
  -4 -13   1  353.59   24.75
  -4 -13   2   60.29    9.16
   4 -13   2   45.94    8.65
  -4 -13   3    4.63    5.40
  -4 -13  -3    2.39    4.71
   4 -13   3    4.19    5.02
   4 -13  -3    5.11    4.73
  -4 -13   4   25.32    6.53
  -4 -13  -4   34.97    7.22
   4 -13   4   37.29    6.58
   4 -13  -4   20.31    5.58
   4 -13  -5   70.70    7.45
  -4 -13   5   61.88    8.12
  -4 -13  -5   53.08    8.02
   5 -13   0   67.88   10.11
  -5 -13   0   86.15   10.62
  -5 -13   1   11.27    6.09
   5 -13   1    1.81    5.55
   5 -13  -1   18.23    6.50
   5 -13   2   86.07   10.30
  -5 -13   2   65.99    9.37
  -5 -13   3   39.54    7.56
  -5 -13  -3   31.99    7.11
   5 -13   3   31.15    6.51
   5 -13  -3   38.35    6.44
   5 -13   4   73.61    7.56
  -5 -13  -4   62.12    8.65
   5 -13  -4   50.59    7.09
  -5 -13   4   68.32    8.70
  -6 -13   0   23.47    6.41
   6 -13   0   10.08    5.65
  -6 -13   1   16.00    5.78
   6 -13   1    4.88    5.67
  -6 -13   2   38.18    6.95
   6 -13   2   43.75    7.36
  -6 -13   3   47.50    7.04
  -6 -13  -3   35.30    6.57
   6 -13   3   46.09    6.60
   6 -13  -3   49.63    6.95
  -7 -13   0   -2.50    4.21
   7 -13   0    2.27    4.31
   7 -13   1  162.03   12.39
  -7 -13   1  120.29   11.25
  -7 -13   2    1.42    3.35
  -7 -13  -2    1.52    3.57
   0   0   0    0.00    0.00


TITL U6-Nd in Pmmn
REM Pmmn (#59, found as Pnmm in -cba setting)
CELL 1.54184  19.808488  17.200678  10.938804  90.0000  90.0000  90.0000
ZERR   16.00   0.000410   0.000314   0.000192   0.0000   0.0000   0.0000
LATT  1
SYMM -x+1/2,-y, z
SYMM -x, y+1/2,-z
SYMM  x+1/2,-y+1/2,-z
SFAC C H N O
UNIT 176.00 160.00 16.00 16.00
TREF
HKLF 4
END
_computing_structure_solution     'SHELXT 2018/2 (Sheldrick, 2018)'
;
_shelx_hkl_checksum                19479
_shelx_fab_file
;
0 0 2 45.2447 -8.3420
0 0 4 -3.1307 -28.2728
0 0 6 -0.2233 -27.0334
0 0 8 19.0537 -36.3763
0 0 10 -13.5839 -14.2540
0 0 12 -18.4201 -19.4445
0 0 14 7.8485 -22.1296
0 0 16 -8.0159 -16.9820
0 0 18 9.1471 -7.9669
0 0 20 10.8684 -9.6549
0 0 22 -1.2513 -12.1960
0 1 1 -13.5146 -21.2011
0 1 3 32.5673 -7.6634
0 1 5 -18.7903 -9.8788
0 1 7 2.8806 -17.8584
0 1 9 -39.2855 -7.5084
0 1 11 0.3100 -12.7205
0 1 13 -11.7675 -4.1144
0 1 15 -6.0556 -12.6600
0 1 17 -7.4106 -2.3444
0 1 19 -1.9123 -6.5835
0 1 21 6.1928 -2.7968
0 1 23 -2.4132 -5.5221
0 2 0 12.1917 -2.3956
0 2 2 1.1770 5.4395
0 2 4 70.5210 -1.0120
0 2 6 -15.2196 3.4769
0 2 8 -3.1295 -2.7912
0 2 10 16.6571 1.5646
0 2 12 -9.8348 0.6567
0 2 14 -9.8350 -0.5421
0 2 16 -2.5545 0.5863
0 2 18 3.9269 -0.6517
0 2 20 -8.3133 1.6745
0 2 22 7.8726 -2.0466
0 3 1 7.9740 -7.0978
0 3 3 -8.6510 -6.4978
0 3 5 -15.7450 -4.6057
0 3 7 19.8917 -4.9786
0 3 9 -20.5550 -3.2334
0 3 11 4.8237 -6.8357
0 3 13 -9.1547 -1.4957
0 3 15 5.3573 -3.1374
0 3 17 -2.1891 -2.2605
0 3 19 3.3395 -3.2531
0 3 21 4.4668 -0.2507
0 3 23 -4.3460 -2.7845
0 4 0 30.9039 -12.9024
0 4 2 -3.7073 -21.0300
0 4 4 18.2496 -16.1498
0 4 6 7.0200 -17.0722
0 4 8 7.7058 -13.1750
0 4 10 -14.0803 -15.8009
0 4 12 -0.2951 -11.4479
0 4 14 4.2115 -10.1403
0 4 16 -5.6221 -8.2192
0 4 18 -5.7455 -7.9365
0 4 20 -1.7796 -6.2598
0 4 22 3.3532 -4.3209
0 5 1 -3.9565 -3.8417
0 5 3 1.5121 -3.9779
0 5 5 -10.4253 -7.0091
0 5 7 7.3175 0.4612
0 5 9 -2.8579 -7.9359
0 5 11 3.2594 0.4517
0 5 13 -2.3505 -7.0121
0 5 15 4.9320 1.5222
0 5 17 -2.6108 -4.6823
0 5 19 0.8319 -0.2325
0 5 21 -5.2823 -3.6476
0 5 23 -2.2805 -0.1433
0 6 0 -5.4992 25.6437
0 6 2 -11.6377 6.8748
0 6 4 8.6715 23.8646
0 6 6 -10.4258 6.6574
0 6 8 7.3059 20.2090
0 6 10 3.7947 7.7199
0 6 12 -4.9165 12.6034
0 6 14 -7.2526 8.2313
0 6 16 -4.8946 8.6340
0 6 18 1.4652 6.7928
0 6 20 -1.0327 3.5937
0 6 22 -3.8999 4.5210
0 7 1 3.7872 12.6249
0 7 3 1.5922 15.9698
0 7 5 2.6176 7.7829
0 7 7 -0.6029 17.6083
0 7 9 -2.8224 5.0760
0 7 11 6.4664 15.9368
0 7 13 -5.0030 1.9376
0 7 15 -1.8754 12.7801
0 7 17 -0.0619 2.5456
0 7 19 -0.5619 9.6129
0 7 21 -3.4803 -0.5969
0 8 0 1.0659 8.6058
0 8 2 2.3139 -7.2751
0 8 4 -2.8731 7.4424
0 8 6 4.8598 -5.5868
0 8 8 7.9580 4.9721
0 8 10 -2.8294 -2.4001
0 8 12 5.7272 1.9778
0 8 14 2.6024 -1.4568
0 8 16 6.5801 0.9598
0 8 18 -5.8095 1.6535
0 8 20 -2.4081 -1.1335
0 9 1 1.5073 4.5367
0 9 3 -0.4750 6.6286
0 9 5 6.0771 2.2650
0 9 7 3.5377 6.5919
0 9 9 6.3503 1.8989
0 9 11 2.4603 6.0954
0 9 13 -0.4851 -0.2254
0 9 15 2.2035 3.4607
0 9 17 4.3837 0.5710
0 9 19 5.8082 5.4326
0 10 0 -7.1718 20.8055
0 10 2 -3.1189 18.7635
0 10 4 5.8131 19.2409
0 10 6 -0.0334 17.3793
0 10 8 -2.8035 17.1397
0 10 10 1.4307 14.7649
0 10 12 3.1624 13.5824
0 10 14 5.0477 10.0090
0 11 1 5.5554 18.3497
0 11 3 -1.4803 16.7249
0 11 5 -3.2270 18.3626
0 11 7 1.5707 14.1572
0 11 9 -0.9664 15.8986
0 11 11 -4.3522 12.1750
0 11 13 1.3859 13.6039
0 12 0 -7.9961 -2.2288
0 12 2 6.5282 6.4726
0 12 4 2.9205 -0.5692
0 12 6 0.1900 4.4952
0 12 8 -2.5570 0.0577
0 13 1 5.9429 -2.6200
0 13 3 -1.1554 -1.4231
0 13 5 2.8684 1.2481
1 0 1 -140.4726 -9.5112
1 0 3 10.8429 10.0654
1 0 5 -6.9945 18.1650
1 0 7 -0.7974 25.2880
1 0 9 -17.3330 20.8134
1 0 11 27.7247 9.2759
1 0 13 -4.2346 18.0784
1 0 15 3.2246 13.3436
1 0 17 3.8769 9.7810
1 0 19 -13.0505 3.6983
1 0 21 -2.3474 10.1103
1 0 23 -1.3064 4.7338
1 1 0 45.6140 6.0094
1 1 1 -2.8826 4.3201
1 1 2 -34.7221 15.0322
1 1 3 -23.2979 2.3586
1 1 4 9.0252 -2.2500
1 1 5 -2.6358 -2.2199
1 1 6 -1.3693 17.6888
1 1 7 15.0145 -0.7727
1 1 8 23.1719 7.5653
1 1 9 0.5341 -2.9472
1 1 10 18.6700 10.2533
1 1 11 -3.2392 2.8278
1 1 12 0.1451 5.0258
1 1 13 2.1637 -3.2830
1 1 14 11.7517 8.9846
1 1 15 -1.7537 1.1067
1 1 16 4.3468 6.4294
1 1 17 -1.8429 -1.6128
1 1 18 6.2287 1.7203
1 1 19 3.0120 1.7352
1 1 20 -3.1737 4.5089
1 1 21 4.0838 -0.9598
1 1 22 -3.2421 1.8360
1 1 23 1.5633 0.1300
1 2 0 -1.2921 -0.5231
1 2 1 0.2502 -9.0374
1 2 2 0.6969 0.0494
1 2 3 -31.2554 -4.3836
1 2 4 -3.2856 1.9467
1 2 5 -40.8757 -1.9574
1 2 6 -1.2785 -8.3060
1 2 7 32.2240 -3.2261
1 2 8 7.5320 -2.8933
1 2 9 -23.7213 3.3046
1 2 10 6.8407 -2.5523
1 2 11 4.0219 -4.0420
1 2 12 1.0777 -2.0296
1 2 13 5.3949 1.3181
1 2 14 3.9937 -3.0865
1 2 15 9.2569 -3.0837
1 2 16 2.2992 -2.7717
1 2 17 -5.4675 1.7596
1 2 18 -1.0113 0.8264
1 2 19 5.0313 -3.0788
1 2 20 -0.6063 -1.7026
1 2 21 1.5402 1.4419
1 2 22 -1.2021 -0.1963
1 2 23 -10.3487 -2.3341
1 3 0 2.9774 -2.4966
1 3 1 -23.6940 18.3246
1 3 2 -13.7547 8.6048
1 3 3 2.2768 -4.7840
1 3 4 30.7640 0.9502
1 3 5 -1.6317 -7.2212
1 3 6 -16.0371 5.8078
1 3 7 -9.1410 -4.2154
1 3 8 6.2756 1.7290
1 3 9 5.1210 -8.3606
1 3 10 7.3021 4.6611
1 3 11 7.7300 -2.7333
1 3 12 2.0536 3.3377
1 3 13 -0.5555 -6.8649
1 3 14 2.7585 2.0516
1 3 15 -3.3551 -0.3160
1 3 16 -4.1878 2.4777
1 3 17 5.5548 -5.9451
1 3 18 2.2491 2.1590
1 3 19 1.8926 -0.3147
1 3 20 -6.0368 1.4509
1 3 21 0.0704 -2.9544
1 3 22 0.9776 0.2679
1 3 23 1.9359 1.2130
1 4 0 1.2013 -2.8670
1 4 1 -14.7936 19.5028
1 4 2 -4.2301 -1.4353
1 4 3 -2.6440 13.8173
1 4 4 -1.4239 -0.6545
1 4 5 -18.8266 13.4827
1 4 6 2.8097 -8.7891
1 4 7 -1.5274 11.2473
1 4 8 -7.0207 -3.6729
1 4 9 -1.0031 11.4056
1 4 10 0.8271 -6.0029
1 4 11 13.2454 11.7252
1 4 12 6.5675 -3.3388
1 4 13 -8.7224 7.2247
1 4 14 10.0950 -3.6977
1 4 15 3.8311 7.3931
1 4 16 3.0751 -3.0321
1 4 17 3.2578 5.9056
1 4 18 -3.6740 -0.8715
1 4 19 3.7475 6.0345
1 4 20 1.4011 -3.1966
1 4 21 -1.7881 4.1551
1 4 22 1.3388 1.6892
1 4 23 -3.3582 2.0365
1 5 0 13.5447 -4.6806
1 5 1 -3.3606 15.0586
1 5 2 -8.3074 4.5465
1 5 3 -11.6510 -4.0286
1 5 4 11.6328 10.0011
1 5 5 -14.6924 -2.3571
1 5 6 -4.1255 -1.6514
1 5 7 0.0449 -0.0603
1 5 8 1.1636 4.7780
1 5 9 -1.9660 -4.8365
1 5 10 -1.7729 -0.0793
1 5 11 -2.6001 -0.3347
1 5 12 1.4517 3.8473
1 5 13 -1.2830 -2.6395
1 5 14 -2.8787 1.1686
1 5 15 -5.5759 0.4588
1 5 16 0.0020 1.6163
1 5 17 -1.8573 -2.5502
1 5 18 0.5280 2.3379
1 5 19 -3.5444 0.7427
1 5 20 1.8853 1.3493
1 5 21 -2.1101 0.1734
1 5 22 3.6487 0.5167
1 5 23 -1.7530 -0.1821
1 6 0 -9.4470 -10.3056
1 6 1 6.5322 -7.7727
1 6 2 -9.8097 0.4078
1 6 3 1.0314 -7.8509
1 6 4 -2.3446 -1.2332
1 6 5 -2.3288 -14.5662
1 6 6 4.7305 -4.2235
1 6 7 5.7450 -6.1969
1 6 8 0.0017 -2.7929
1 6 9 -13.3842 -17.2650
1 6 10 -0.6530 -1.7851
1 6 11 5.3496 -3.4213
1 6 12 -2.0708 -2.7898
1 6 13 3.8258 -13.7756
1 6 14 5.1069 -1.3269
1 6 15 8.0555 -2.0265
1 6 16 1.2385 -2.1630
1 6 17 -1.0595 -10.5352
1 6 18 0.9091 -0.6936
1 6 19 0.2645 -0.4199
1 6 20 -0.7023 -0.5023
1 6 21 2.6633 -6.4691
1 6 22 -0.6004 -0.8064
1 7 0 -1.8124 -12.0106
1 7 1 -4.1036 2.7287
1 7 2 -5.3370 -13.8414
1 7 3 5.7189 -7.2231
1 7 4 0.4478 -0.3529
1 7 5 2.1570 -5.5207
1 7 6 -4.2881 -15.8301
1 7 7 3.6964 -5.0956
1 7 8 6.2719 -6.4252
1 7 9 7.4797 -3.4842
1 7 10 -3.8562 -12.4676
1 7 11 5.8296 -4.6408
1 7 12 0.3855 -5.2929
1 7 13 7.7737 -3.5300
1 7 14 3.9183 -7.3314
1 7 15 8.8688 -2.7420
1 7 16 1.2635 -5.3379
1 7 17 5.9980 -2.7080
1 7 18 -0.6994 -3.8274
1 7 19 3.0784 -1.7170
1 7 20 2.9864 -4.4896
1 7 21 0.7030 -3.4593
1 8 0 -1.5809 -21.3144
1 8 1 -1.2784 10.7783
1 8 2 0.1148 -4.0979
1 8 3 0.0703 -0.1577
1 8 4 6.2218 -6.0798
1 8 5 1.4659 -2.0206
1 8 6 5.8802 -1.1174
1 8 7 -9.3147 4.0958
1 8 8 1.2157 -4.3793
1 8 9 0.9123 -5.3903
1 8 10 9.2795 -1.4196
1 8 11 -0.5581 3.3975
1 8 12 5.3498 -3.2898
1 8 13 -3.5677 -3.7816
1 8 14 2.6136 -2.3471
1 8 15 -4.4617 4.2464
1 8 16 2.9749 -1.6204
1 8 17 -1.2378 -4.4315
1 8 18 6.7443 -3.4125
1 8 19 6.7219 3.6179
1 8 20 0.0806 -3.9275
1 9 0 -2.0890 -22.0761
1 9 1 3.6908 -8.3454
1 9 2 0.8575 -3.5595
1 9 3 -8.6540 -2.8101
1 9 4 -3.2296 0.5862
1 9 5 -15.4301 1.9986
1 9 6 -3.7598 -5.0547
1 9 7 -2.0872 -0.6549
1 9 8 -2.7260 -1.8533
1 9 9 -1.6964 2.3531
1 9 10 -6.3514 -4.9781
1 9 11 -2.5882 -1.4871
1 9 12 -0.0117 -1.4299
1 9 13 -4.3655 1.9515
1 9 14 -0.8815 -1.3519
1 9 15 -4.6428 -2.8043
1 9 16 -1.6304 -1.1481
1 9 17 -3.0079 2.2241
1 9 18 -5.9340 -2.8078
1 10 0 1.5916 -12.6683
1 10 1 4.8777 -12.7471
1 10 2 3.2722 2.8281
1 10 3 -1.3030 -16.3796
1 10 4 0.5686 -4.8217
1 10 5 -3.6840 -14.1422
1 10 6 -3.6971 4.5235
1 10 7 3.0468 -12.0376
1 10 8 -6.7217 -0.1179
1 10 9 -0.4994 -12.0301
1 10 10 -0.1322 3.0759
1 10 11 -0.6956 -11.1026
1 10 12 -2.8887 0.1636
1 10 13 -4.4658 -8.9440
1 10 14 -1.6986 -0.5401
1 10 15 -0.4308 -6.3167
1 10 16 -1.6599 1.1819
1 10 17 5.5834 -2.0399
1 11 0 -7.1832 -29.2879
1 11 1 -6.7430 -7.1519
1 11 2 -1.7330 -11.9358
1 11 3 -7.1782 -2.0838
1 11 4 1.6254 -15.6187
1 11 5 3.9125 -0.7650
1 11 6 -0.1236 -10.5616
1 11 7 0.9196 -1.2025
1 11 8 -2.9450 -12.2464
1 11 9 -4.4901 2.2500
1 11 10 3.5993 -8.0336
1 11 11 -3.7730 -3.7977
1 11 12 -0.8535 -11.0413
1 11 13 4.8169 2.7724
1 11 14 -0.5912 -7.6296
1 12 0 -0.9168 -1.1801
1 12 1 2.4805 2.5712
1 12 2 7.2992 -4.0703
1 12 3 -7.4821 -7.4894
1 12 4 0.9422 -2.3342
1 12 5 0.6464 2.0844
1 12 6 -1.4243 0.8874
1 12 7 -0.2365 -4.1032
1 12 8 4.7640 -1.7082
1 12 9 2.6535 2.2109
1 12 10 5.1128 1.1486
1 13 0 -8.2930 -19.0355
1 13 1 -6.9154 -4.3570
1 13 2 0.1527 6.0106
1 13 3 -4.8400 2.2429
1 13 4 -1.8299 -4.1297
1 13 5 0.0788 3.1542
1 13 6 -0.9006 8.8435
2 0 0 145.4161 7.0451
2 0 2 22.2155 11.9194
2 0 4 1.4990 -7.6202
2 0 6 -7.6506 -8.0983
2 0 8 17.3643 -16.1703
2 0 10 -0.3517 -4.1599
2 0 12 -9.2312 -8.0048
2 0 14 5.4659 -7.0123
2 0 16 -11.9821 -6.1632
2 0 18 0.1226 -1.4272
2 0 20 8.6676 -3.1911
2 0 22 -2.0098 -4.4173
2 1 0 -5.4815 6.1864
2 1 1 -11.8156 -7.3702
2 1 2 26.8558 -2.7761
2 1 3 23.3791 0.2629
2 1 4 29.8176 1.7502
2 1 5 -20.0311 -2.7662
2 1 6 -17.9354 0.6788
2 1 7 4.7910 -12.1774
2 1 8 -15.4735 2.1011
2 1 9 -29.9715 -2.5956
2 1 10 7.5024 -2.3117
2 1 11 5.1495 -6.4456
2 1 12 -0.2837 -0.1725
2 1 13 -8.8025 -1.7871
2 1 14 -1.2692 1.1441
2 1 15 -5.4019 -8.7170
2 1 16 4.7360 -0.2493
2 1 17 -4.6735 0.8657
2 1 18 -1.4898 -0.3135
2 1 19 -1.7862 -3.1636
2 1 20 -7.0156 -0.4615
2 1 21 3.6161 0.1226
2 1 22 -4.9297 0.7760
2 1 23 2.5302 -5.1228
2 2 0 8.2453 7.3060
2 2 1 -0.6201 1.8437
2 2 2 -15.5345 13.4753
2 2 3 0.1777 0.7356
2 2 4 46.4500 -0.7202
2 2 5 6.3525 2.5653
2 2 6 -10.7913 8.4743
2 2 7 -6.1343 6.7575
2 2 8 -0.2308 -2.5947
2 2 9 -14.3901 -1.6029
2 2 10 11.2955 3.7366
2 2 11 -5.0565 2.4358
2 2 12 -4.6261 1.0880
2 2 13 -2.3566 -1.1916
2 2 14 -2.3806 3.1559
2 2 15 -6.6772 4.4188
2 2 16 -0.4343 0.8605
2 2 17 0.5053 -1.3422
2 2 18 1.2818 1.3361
2 2 19 0.3448 1.5354
2 2 20 -6.0258 2.1914
2 2 21 1.8887 -0.1078
2 2 22 5.3405 -0.7384
2 2 23 0.0735 1.0383
2 3 0 47.7813 -13.7711
2 3 1 5.5906 -1.9744
2 3 2 15.7137 1.0035
2 3 3 -7.0921 -1.6662
2 3 4 -9.6212 7.7535
2 3 5 -16.9166 -0.1451
2 3 6 15.2169 2.8416
2 3 7 17.7406 -3.3477
2 3 8 3.6582 5.5053
2 3 9 -16.8588 -0.2538
2 3 10 -13.6221 1.2722
2 3 11 1.8238 -3.1080
2 3 12 -6.7923 3.3826
2 3 13 -7.9487 -0.6298
2 3 14 6.1505 2.1736
2 3 15 6.7233 -2.1155
2 3 16 -4.1462 2.1877
2 3 17 -1.6080 -0.4834
2 3 18 -9.6821 2.6154
2 3 19 1.8951 -1.7297
2 3 20 1.0969 0.6626
2 3 21 2.1291 0.9990
2 3 22 -3.8302 1.7822
2 3 23 -1.7138 -3.2753
2 4 0 20.5158 -44.9319
2 4 1 -0.7036 2.1563
2 4 2 -1.9969 -2.7128
2 4 3 7.5599 1.6382
2 4 4 21.9711 -10.7659
2 4 5 -6.5273 4.8636
2 4 6 0.4541 -5.0317
2 4 7 4.5818 3.4398
2 4 8 3.0787 -6.3226
2 4 9 8.6082 0.7326
2 4 10 -7.6450 -7.1344
2 4 11 -8.5047 4.2417
2 4 12 1.4711 -5.0809
2 4 13 -14.1051 -0.9065
2 4 14 2.1215 -3.6270
2 4 15 -14.0182 3.7228
2 4 16 -2.0254 -3.4056
2 4 17 4.5361 -0.2095
2 4 18 0.9436 -3.7786
2 4 19 1.1948 3.2345
2 4 20 1.8172 -2.3561
2 4 21 -4.0048 -0.5943
2 4 22 0.9122 -2.7440
2 4 23 -1.1289 -0.0552
2 5 0 4.7229 -7.1014
2 5 1 -3.5809 0.0132
2 5 2 10.9644 -1.5659
2 5 3 2.3051 -8.4016
2 5 4 25.5797 2.6873
2 5 5 -6.3078 -3.1997
2 5 6 12.6332 -0.5066
2 5 7 6.3129 2.1125
2 5 8 -3.6416 0.7741
2 5 9 -6.3029 -3.2062
2 5 10 8.5823 -0.3143
2 5 11 3.5083 1.8041
2 5 12 -0.9540 -0.7003
2 5 13 -2.0098 -4.2834
2 5 14 7.3156 0.6258
2 5 15 3.3909 2.0112
2 5 16 4.4244 -0.8053
2 5 17 -3.2290 -3.8440
2 5 18 4.0982 1.1371
2 5 19 0.6011 0.6233
2 5 20 5.4245 -1.3452
2 5 21 -2.0279 -1.6359
2 5 22 2.3023 0.8672
2 5 23 -1.6766 3.0437
2 6 0 7.3149 -5.2435
2 6 1 15.4979 -0.8566
2 6 2 -6.3368 -0.7308
2 6 3 13.0569 0.5292
2 6 4 6.8764 8.5309
2 6 5 -5.5866 1.5317
2 6 6 -5.4062 1.9471
2 6 7 -2.7266 1.0267
2 6 8 11.5232 10.6331
2 6 9 1.0389 -0.0915
2 6 10 3.3841 4.3925
2 6 11 3.7051 1.6423
2 6 12 -6.2424 6.4470
2 6 13 -2.0922 -0.5619
2 6 14 -4.7560 3.6914
2 6 15 -5.5071 0.9070
2 6 16 -1.5573 3.8112
2 6 17 1.1326 0.1844
2 6 18 2.3579 3.4743
2 6 19 -1.5044 0.7482
2 6 20 -3.2820 1.5129
2 6 21 2.3077 -0.1026
2 6 22 -3.8046 2.7305
2 7 0 12.4348 -9.0203
2 7 1 3.5826 4.7500
2 7 2 -0.9798 5.6096
2 7 3 3.4676 1.9959
2 7 4 -9.6174 2.4996
2 7 5 1.0877 -0.0214
2 7 6 -1.0304 4.5332
2 7 7 -0.4263 11.7763
2 7 8 -13.5610 2.5541
2 7 9 -5.7135 1.4899
2 7 10 -9.7115 2.5319
2 7 11 2.3132 9.9703
2 7 12 -11.5125 3.0385
2 7 13 -4.2231 -1.4657
2 7 14 -15.3843 2.1256
2 7 15 -1.6734 8.2566
2 7 16 -16.8381 2.1518
2 7 17 -1.3047 -2.7346
2 7 18 -6.5429 2.0167
2 7 19 -0.3267 5.9859
2 7 20 -4.5323 2.0351
2 7 21 -2.2870 -3.6654
2 8 0 -0.1407 -41.0640
2 8 1 1.6462 5.1054
2 8 2 0.0389 -3.0116
2 8 3 -3.3381 1.9518
2 8 4 -1.7439 1.6290
2 8 5 -12.8225 2.7608
2 8 6 3.5221 -4.4249
2 8 7 -2.6924 1.1547
2 8 8 2.8229 1.9625
2 8 9 -9.6940 3.3761
2 8 10 -5.6036 -0.7043
2 8 11 -14.5649 1.3997
2 8 12 1.7032 0.6960
2 8 13 -5.6126 2.8710
2 8 14 1.0782 -1.7192
2 8 15 -2.2172 0.9335
2 8 16 4.3334 -0.3679
2 8 17 -8.9821 2.0301
2 8 18 -5.0430 0.4548
2 8 19 -6.9814 2.5370
2 8 20 -1.7221 -3.7185
2 9 0 -8.2507 1.1289
2 9 1 -0.5580 12.6190
2 9 2 3.3079 5.0509
2 9 3 1.4060 -4.9244
2 9 4 25.0422 -4.9356
2 9 5 2.8972 0.3976
2 9 6 16.9122 1.7997
2 9 7 -2.6019 1.6432
2 9 8 -1.4865 -2.6481
2 9 9 4.2483 0.7540
2 9 10 5.4098 1.3999
2 9 11 5.0509 3.3565
2 9 12 1.8291 -1.4759
2 9 13 0.0016 -1.5918
2 9 14 10.4991 1.1924
2 9 15 -1.0509 1.6765
2 9 16 2.8910 -0.2950
2 9 17 1.9222 0.0204
2 9 18 7.1501 -1.3869
2 10 0 -0.5270 -7.0362
2 10 1 -5.1170 -2.5909
2 10 2 -1.2046 12.3458
2 10 3 -4.4815 -0.4518
2 10 4 1.1833 6.7501
2 10 5 1.3674 -0.7426
2 10 6 -0.8366 7.3516
2 10 7 10.5169 -2.6111
2 10 8 -0.1714 4.2797
2 10 9 5.2251 1.2527
2 10 10 0.6680 7.1862
2 10 11 0.9360 -2.9013
2 10 12 -1.2350 5.0091
2 10 13 4.8538 2.4194
2 10 14 3.0468 3.9358
2 10 15 1.7957 -2.6479
2 10 16 -2.0476 1.7783
2 10 17 2.5373 -0.3225
2 11 0 6.4093 -0.1050
2 11 1 4.7169 15.4208
2 11 2 16.5371 4.8092
2 11 3 0.9925 5.8041
2 11 4 -0.6708 -0.5452
2 11 5 3.0255 7.6159
2 11 6 -6.0767 2.4856
2 11 7 5.1807 4.7310
2 11 8 2.3193 -1.1971
2 11 9 1.4707 4.7435
2 11 10 9.5948 1.9085
2 11 11 0.6945 3.2495
2 11 12 -2.4451 1.5818
2 11 13 5.2076 7.5888
2 11 14 -7.0978 -1.6093
2 12 0 -7.0828 -27.6693
2 12 1 -4.1112 3.6909
2 12 2 4.9289 11.8322
2 12 3 -11.0639 2.0615
2 12 4 1.0743 -3.5416
2 12 5 5.2573 0.6847
2 12 6 0.4530 2.6383
2 12 7 -4.2532 -0.1274
2 12 8 -1.8150 -1.9678
2 12 9 -8.5502 1.6236
2 12 10 -0.7278 -1.1285
2 13 0 10.0232 5.8976
2 13 1 2.7413 11.1101
2 13 2 11.6653 1.4799
2 13 3 -0.5093 -4.0988
2 13 4 1.4875 -2.3765
2 13 5 2.3773 0.9070
2 13 6 1.5913 -0.9517
3 0 1 -51.2306 -8.8140
3 0 3 10.4364 -7.6033
3 0 5 -2.9726 0.9847
3 0 7 11.2014 2.0441
3 0 9 -26.2194 2.3063
3 0 11 4.4571 -2.0674
3 0 13 -6.4655 1.9234
3 0 15 7.3429 -0.7846
3 0 17 14.5496 0.5830
3 0 19 -1.6221 -1.9990
3 0 21 -2.8384 1.7313
3 0 23 2.6948 -1.9515
3 1 0 33.1034 -15.2075
3 1 1 -6.3328 -7.4395
3 1 2 -24.3007 6.1844
3 1 3 -43.0333 2.8912
3 1 4 15.8365 -8.1782
3 1 5 -6.6103 -3.9553
3 1 6 -2.2828 9.1108
3 1 7 26.6932 1.0440
3 1 8 12.1811 0.0384
3 1 9 0.5516 -0.6010
3 1 10 5.1505 3.4085
3 1 11 -7.0705 4.2808
3 1 12 -5.0989 -1.7458
3 1 13 3.1501 -2.2721
3 1 14 8.2532 3.9332
3 1 15 -3.0956 1.1980
3 1 16 3.2102 0.9444
3 1 17 -2.3093 -0.7440
3 1 18 1.3036 -0.5540
3 1 19 6.3492 1.5156
3 1 20 1.5699 0.5530
3 1 21 6.9009 -1.3364
3 1 22 -5.5951 -0.1257
3 1 23 2.4986 0.7714
3 2 0 1.4052 2.4268
3 2 1 11.4795 -10.9826
3 2 2 4.7629 -3.9980
3 2 3 9.2225 -3.5522
3 2 4 -4.4728 -1.3993
3 2 5 -22.5420 -3.7644
3 2 6 -0.7033 -4.7174
3 2 7 16.5438 -3.4307
3 2 8 13.4932 0.2235
3 2 9 -14.8596 -0.1088
3 2 10 11.2807 1.0305
3 2 11 4.1433 -4.7614
3 2 12 -0.0360 1.0565
3 2 13 -6.7574 -1.0720
3 2 14 4.9233 -0.3618
3 2 15 -0.9570 -3.5071
3 2 16 2.6700 -1.3780
3 2 17 -3.8060 0.3055
3 2 18 -0.7528 0.6334
3 2 19 4.2622 -3.5833
3 2 20 1.0690 -1.1755
3 2 21 -0.7454 0.7752
3 2 22 -3.0159 0.3772
3 2 23 -1.7967 -3.5075
3 3 0 6.4328 -21.0817
3 3 1 -39.0103 -2.2487
3 3 2 -12.8162 7.9962
3 3 3 8.0206 -8.5118
3 3 4 25.7350 -7.4834
3 3 5 -1.1398 -2.9256
3 3 6 -10.0896 3.9906
3 3 7 -17.2644 -2.5946
3 3 8 1.2201 -2.3662
3 3 9 9.1677 -1.1584
3 3 10 5.4552 1.9796
3 3 11 11.6436 1.8624
3 3 12 4.4007 -1.4680
3 3 13 -0.5521 -2.9468
3 3 14 -1.4661 1.0642
3 3 15 -1.8170 -0.0120
3 3 16 -4.6909 -0.4426
3 3 17 15.2896 -2.7405
3 3 18 1.7720 0.1122
3 3 19 3.1298 0.5822
3 3 20 -1.1873 0.1584
3 3 21 1.3402 -2.2374
3 3 22 -0.3105 -1.1884
3 3 23 6.8995 0.0940
3 4 0 8.0231 1.2725
3 4 1 -3.0051 13.5614
3 4 2 -3.4570 -2.7261
3 4 3 -10.9618 -2.1320
3 4 4 0.5301 -5.7257
3 4 5 -15.1189 3.8329
3 4 6 8.0707 -2.5513
3 4 7 10.7677 -1.0008
3 4 8 -14.7442 1.7152
3 4 9 -3.8397 2.2976
3 4 10 1.8437 -1.5851
3 4 11 3.1602 1.7714
3 4 12 12.2572 0.5623
3 4 13 -5.5193 0.4122
3 4 14 19.0290 0.0723
3 4 15 2.4085 0.8913
3 4 16 3.4748 -1.4701
3 4 17 -6.4998 0.6092
3 4 18 -6.1115 -1.1728
3 4 19 -6.6709 0.9589
3 4 20 6.0972 -1.3685
3 4 21 -2.6432 0.3067
3 4 22 1.8351 0.6328
3 4 23 1.7139 0.6726
3 5 0 11.5813 -27.4366
3 5 1 -8.0145 -7.3331
3 5 2 -6.4590 10.3857
3 5 3 -18.7708 -0.0370
3 5 4 7.0974 0.9831
3 5 5 -26.5526 -3.1957
3 5 6 -6.7341 -0.7212
3 5 7 2.2105 0.7753
3 5 8 5.7146 -0.2316
3 5 9 -5.1153 -0.5335
3 5 10 1.2717 -0.0238
3 5 11 -4.9597 2.9901
3 5 12 -0.6778 1.0506
3 5 13 0.4992 -1.6656
3 5 14 -0.6107 -0.1317
3 5 15 -7.6384 1.2461
3 5 16 1.0983 0.5322
3 5 17 -0.6694 -1.0374
3 5 18 2.7068 0.5117
3 5 19 -7.4393 0.2007
3 5 20 -0.7058 0.4467
3 5 21 -3.2597 -0.9314
3 5 22 -0.4609 -2.3583
3 5 23 -1.4633 -0.5974
3 6 0 -13.7351 9.5303
3 6 1 -8.4336 0.0758
3 6 2 -17.3954 -0.1617
3 6 3 2.4504 3.4195
3 6 4 -4.4172 -3.8319
3 6 5 -3.2870 -3.1907
3 6 6 8.4476 0.6476
3 6 7 -3.0983 1.5368
3 6 8 -4.9575 0.5046
3 6 9 -14.4399 -7.1115
3 6 10 -0.6420 -0.5227
3 6 11 7.3987 3.5148
3 6 12 -4.9557 -0.1813
3 6 13 2.7545 -5.1844
3 6 14 5.8112 1.0717
3 6 15 2.7159 3.4774
3 6 16 -3.5914 -0.7197
3 6 17 -4.3265 -4.8747
3 6 18 0.5817 -0.1277
3 6 19 1.7084 3.0070
3 6 20 -0.7392 -1.0408
3 6 21 5.7683 -4.7885
3 6 22 -1.3796 -0.5285
3 7 0 1.0231 -14.6715
3 7 1 -12.4912 -1.9113
3 7 2 -6.8373 4.1947
3 7 3 10.1913 -2.9617
3 7 4 0.7407 3.0495
3 7 5 3.4000 -0.1078
3 7 6 -2.2240 -2.8638
3 7 7 9.1661 -3.3104
3 7 8 6.3735 -0.8233
3 7 9 16.8637 -0.5217
3 7 10 4.3739 -2.3334
3 7 11 8.4031 -1.6048
3 7 12 2.5255 0.5466
3 7 13 16.0401 -1.5629
3 7 14 2.2144 -0.7843
3 7 15 24.6223 -0.7230
3 7 16 1.8878 -0.2378
3 7 17 16.4615 -2.0983
3 7 18 1.4961 1.0146
3 7 19 5.1998 -1.1939
3 7 20 1.0929 -1.0168
3 7 21 1.0964 -1.3434
3 8 0 -1.1743 -5.6360
3 8 1 1.3483 16.1383
3 8 2 -0.8497 3.5876
3 8 3 1.4594 -1.2160
3 8 4 7.1302 -2.7010
3 8 5 -0.8060 2.3427
3 8 6 10.0449 0.2638
3 8 7 -1.7905 2.5353
3 8 8 2.4944 -2.4152
3 8 9 5.8054 -1.8038
3 8 10 19.2599 -1.4797
3 8 11 4.3496 3.0811
3 8 12 9.6804 -1.8301
3 8 13 0.3976 -1.2363
3 8 14 3.3633 -0.6722
3 8 15 -1.9505 4.2014
3 8 16 1.2370 -1.0103
3 8 17 0.6638 -2.3551
3 8 18 13.7117 -0.4998
3 8 19 3.3929 3.3380
3 8 20 0.3132 -1.5595
3 9 0 2.4950 -38.4556
3 9 1 3.5291 -4.2738
3 9 2 -0.7180 8.7961
3 9 3 -17.1898 5.2183
3 9 4 -3.8973 0.0301
3 9 5 -31.4282 0.6567
3 9 6 4.7776 2.5687
3 9 7 -4.2279 -0.4139
3 9 8 3.5621 0.3510
3 9 9 -2.2761 0.1979
3 9 10 -6.9257 -0.4024
3 9 11 0.2538 -1.1634
3 9 12 -3.4416 0.3120
3 9 13 -6.2444 1.0927
3 9 14 2.4052 1.3955
3 9 15 -7.6996 -1.2472
3 9 16 2.6278 -0.5883
3 9 17 -2.3016 2.1525
3 9 18 -2.1802 -0.5983
3 10 0 6.4140 6.0637
3 10 1 -4.5987 -0.4531
3 10 2 8.7859 4.6965
3 10 3 1.1678 -2.7826
3 10 4 2.1243 0.3714
3 10 5 1.9067 -0.1520
3 10 6 -4.1420 3.4391
3 10 7 0.0674 0.1375
3 10 8 -11.7822 -2.5736
3 10 9 -2.1989 -0.5846
3 10 10 1.2017 1.1624
3 10 11 3.2236 -1.5153
3 10 12 -5.2454 -1.1138
3 10 13 2.3118 -0.7380
3 10 14 -0.8882 0.3918
3 10 15 -1.1185 0.3811
3 10 16 -4.2306 3.4323
3 11 0 -5.0703 -21.6264
3 11 1 -11.5916 2.0166
3 11 2 -1.8632 4.0736
3 11 3 -11.6634 -1.3454
3 11 4 -5.7724 -5.0207
3 11 5 10.8832 1.7176
3 11 6 -8.9350 2.7497
3 11 7 1.7196 -1.7650
3 11 8 -6.1469 -2.3033
3 11 9 -6.1864 1.3328
3 11 10 -2.0816 2.9790
3 11 11 -6.1417 -2.9609
3 11 12 -7.0094 -3.4710
3 11 13 9.3129 0.9547
3 11 14 -4.3900 -1.9892
3 12 0 -2.2871 -9.1462
3 12 1 2.7889 7.6443
3 12 2 15.0428 1.3679
3 12 3 -3.3136 -6.4772
3 12 4 -0.4812 -0.1827
3 12 5 2.2224 5.4501
3 12 6 -1.8686 1.5778
3 12 7 -0.9241 -2.8671
3 12 8 8.6118 0.0927
3 12 9 3.9822 4.3431
3 12 10 5.7233 -0.6120
3 13 0 -1.0385 -36.0101
3 13 1 -11.7084 -1.8364
3 13 2 1.7263 6.5900
3 13 3 -6.7497 0.3733
3 13 4 -1.9338 -5.0463
3 13 5 1.4476 1.7784
4 0 0 23.8968 -8.4967
4 0 2 -16.6725 9.1465
4 0 4 7.4252 2.6011
4 0 6 -21.8118 4.3276
4 0 8 11.0458 1.6800
4 0 10 19.0190 6.0669
4 0 12 4.6804 2.3712
4 0 14 1.0703 4.0913
4 0 16 -15.1160 1.6856
4 0 18 -14.6312 2.7085
4 0 20 4.3806 1.0772
4 0 22 -3.3958 1.4032
4 1 0 -2.0181 23.5032
4 1 1 -5.0454 5.4470
4 1 2 24.3495 -2.3061
4 1 3 10.0424 2.0594
4 1 4 28.0798 1.9418
4 1 5 -16.8723 1.9936
4 1 6 -13.1701 0.7011
4 1 7 9.6894 -2.6614
4 1 8 -13.7435 -0.6437
4 1 9 -11.6895 2.3589
4 1 10 7.7086 -2.5533
4 1 11 12.9051 0.5627
4 1 12 1.4739 -0.8427
4 1 13 -2.7508 3.1771
4 1 14 -0.1555 0.5700
4 1 15 -4.7391 -1.7824
4 1 16 3.3379 -0.2081
4 1 17 -0.6267 2.2471
4 1 18 -3.1716 -0.3499
4 1 19 -0.8048 -0.5390
4 1 20 -6.4483 0.1881
4 1 21 -0.4384 1.8461
4 1 22 -3.1676 -0.1768
4 1 23 10.6234 -2.4922
4 2 0 3.7111 -9.8779
4 2 1 -6.1883 -0.2350
4 2 2 -39.2716 9.6302
4 2 3 -3.2593 4.7371
4 2 4 4.3934 -4.3860
4 2 5 3.1615 0.2474
4 2 6 -3.0343 5.9308
4 2 7 -7.3292 2.0223
4 2 8 3.4147 -3.4562
4 2 9 -10.9270 -3.8112
4 2 10 -0.0563 5.6501
4 2 11 -2.0591 0.0555
4 2 12 4.1774 -0.2815
4 2 13 1.5128 -2.4152
4 2 14 11.0896 2.8008
4 2 15 -3.1130 1.6807
4 2 16 6.3404 -0.6705
4 2 17 0.5984 -1.0374
4 2 18 0.2931 1.6449
4 2 19 -3.6126 1.0373
4 2 20 0.2108 1.0252
4 2 21 0.1334 -0.3375
4 2 22 0.4737 -1.0616
4 2 23 2.2568 -0.0884
4 3 0 34.6550 -3.8135
4 3 1 3.2146 2.4487
4 3 2 8.3536 11.4716
4 3 3 -0.7809 0.9215
4 3 4 -14.2124 2.5077
4 3 5 -14.3712 3.1052
4 3 6 14.4171 0.8511
4 3 7 15.2472 -0.4744
4 3 8 3.3009 0.7955
4 3 9 -5.7404 1.0238
4 3 10 -8.9818 -3.3670
4 3 11 0.3081 0.6105
4 3 12 -3.4242 -0.1179
4 3 13 -4.1115 1.8054
4 3 14 2.2065 0.3804
4 3 15 8.6700 0.0930
4 3 16 -12.0493 1.0901
4 3 17 -0.7461 1.3455
4 3 18 -12.1646 -0.3845
4 3 19 -0.5899 -0.0417
4 3 20 2.2987 0.3984
4 3 21 -0.6336 1.1166
4 3 22 -9.0300 0.8006
4 3 23 3.6735 -0.6201
4 4 0 -2.0632 -45.4777
4 4 1 -7.7254 1.0821
4 4 2 -3.3018 13.8762
4 4 3 2.7298 6.0459
4 4 4 24.0778 -4.0247
4 4 5 -11.7517 3.8302
4 4 6 -10.1818 6.4614
4 4 7 4.1652 -1.7337
4 4 8 -3.4360 -0.1491
4 4 9 10.2830 -1.4994
4 4 10 3.8874 2.6713
4 4 11 -8.1101 0.5264
4 4 12 4.1291 0.4768
4 4 13 -13.1413 -1.6919
4 4 14 -0.2948 1.5466
4 4 15 -12.6191 1.4129
4 4 16 4.9895 0.8421
4 4 17 6.5774 0.3694
4 4 18 13.7319 0.4301
4 4 19 -4.1875 1.5591
4 4 20 9.2757 2.0094
4 4 21 -5.7116 -0.4097
4 4 22 -1.7915 -1.6605
4 4 23 1.2905 0.5686
4 5 0 9.1301 27.4224
4 5 1 -3.9350 3.6308
4 5 2 8.1531 3.1114
4 5 3 0.5813 -2.4108
4 5 4 20.4269 2.8250
4 5 5 -2.1222 1.6890
4 5 6 10.7883 2.7978
4 5 7 4.4028 1.5806
4 5 8 -4.8532 0.2115
4 5 9 -10.2097 -1.2996
4 5 10 12.4830 -0.3622
4 5 11 3.9147 0.9025
4 5 12 -5.2054 -0.1664
4 5 13 -1.9383 -1.6596
4 5 14 4.2081 1.9266
4 5 15 1.0504 2.3285
4 5 16 -0.6208 -0.4602
4 5 17 -4.4878 -1.7465
4 5 18 3.8367 1.8912
4 5 19 -1.9638 2.2421
4 5 20 5.6351 0.5852
4 5 21 2.9519 -1.2650
4 5 22 -0.0670 1.7671
4 6 0 20.3168 -9.9132
4 6 1 9.5566 -6.6134
4 6 2 -2.4244 2.6503
4 6 3 12.5262 7.2815
4 6 4 1.0158 -5.0402
4 6 5 -7.5114 0.8793
4 6 6 0.8558 -1.1515
4 6 7 3.5127 -0.1780
4 6 8 13.5411 -0.2194
4 6 9 5.0517 -0.3415
4 6 10 0.8765 -2.2519
4 6 11 2.3930 1.7665
4 6 12 -6.1420 -2.7044
4 6 13 1.9396 -1.1699
4 6 14 -0.4611 -1.5940
4 6 15 2.3426 1.0150
4 6 16 1.3610 -1.0386
4 6 17 6.8000 -0.1318
4 6 18 3.6103 -0.8911
4 6 19 -2.0819 1.6942
4 6 20 -7.3399 -0.0557
4 6 21 2.1879 0.7376
4 6 22 -4.4070 1.4672
4 7 0 17.9930 -5.2564
4 7 1 0.2603 -5.3564
4 7 2 2.7310 5.3536
4 7 3 3.9946 -1.1712
4 7 4 -9.9448 -2.5306
4 7 5 -2.2880 -3.9312
4 7 6 -0.0112 1.0745
4 7 7 0.2336 0.9241
4 7 8 -20.0453 0.5988
4 7 9 -10.0376 -5.0432
4 7 10 -7.9631 -0.1622
4 7 11 -4.5549 0.9681
4 7 12 -8.4547 0.8084
4 7 13 -3.0208 -5.8647
4 7 14 -21.5615 -0.5079
4 7 15 -0.1669 2.4403
4 7 16 -28.1002 0.5977
4 7 17 -3.4960 -4.6825
4 7 18 -7.8760 1.4102
4 7 19 -1.9693 2.3509
4 7 20 -3.3546 0.1677
4 7 21 -0.4580 -3.7626
4 8 0 -1.5474 -37.9173
4 8 1 -0.1943 -2.6842
4 8 2 -3.0833 7.3981
4 8 3 2.5004 -2.4938
4 8 4 0.7273 -5.6540
4 8 5 -7.7690 1.3467
4 8 6 0.4757 0.9170
4 8 7 -2.7078 -0.2997
4 8 8 -4.5669 -1.3186
4 8 9 -11.8209 1.4642
4 8 10 -6.7073 -0.6869
4 8 11 -14.3870 0.3515
4 8 12 -3.2319 -1.5884
4 8 13 -4.3235 0.3623
4 8 14 0.3629 -1.1662
4 8 15 3.3911 -0.0920
4 8 16 0.5942 -1.1551
4 8 17 -5.9312 0.0183
4 8 18 -1.9501 0.9055
4 8 19 -8.9426 -0.8752
4 9 0 -1.8586 9.5722
4 9 1 -1.4595 4.5504
4 9 2 6.0312 -4.0677
4 9 3 5.4827 -4.7466
4 9 4 26.0479 -3.6638
4 9 5 -1.1286 0.1210
4 9 6 19.8278 2.2805
4 9 7 -9.0343 -3.5713
4 9 8 -1.7619 -0.4839
4 9 9 2.2134 -0.7274
4 9 10 1.3676 2.5064
4 9 11 6.6356 -0.2693
4 9 12 -6.4849 -1.1967
4 9 13 -0.3003 -2.3305
4 9 14 11.7829 0.7032
4 9 15 -5.0806 0.0626
4 9 16 -1.6327 -1.4244
4 9 17 -1.3281 -0.0984
4 9 18 4.7063 -0.5010
4 10 0 11.9692 -13.4935
4 10 1 -9.5770 -8.6402
4 10 2 4.9870 5.3926
4 10 3 -6.0843 -0.3469
4 10 4 -3.6624 -8.8024
4 10 5 -2.2849 -3.3957
4 10 6 -1.0298 0.2272
4 10 7 6.7691 1.1494
4 10 8 2.2819 -5.1266
4 10 9 2.6511 1.5738
4 10 10 -0.1907 0.1905
4 10 11 0.0590 -0.2901
4 10 12 -5.9133 -2.8359
4 10 13 2.2850 1.3756
4 10 14 -2.7290 -0.8862
4 10 15 -0.5293 -3.3514
4 10 16 0.3202 -2.5107
4 11 0 2.5774 -13.1365
4 11 1 2.5462 -4.0504
4 11 2 16.0005 0.0861
4 11 3 3.2994 -3.3044
4 11 4 -6.8329 -3.3917
4 11 5 11.9794 -1.8045
4 11 6 -6.6845 -0.4626
4 11 7 10.2041 -3.5822
4 11 8 1.0878 0.0124
4 11 9 4.5283 -2.2059
4 11 10 6.9375 -0.4335
4 11 11 5.2175 -2.3475
4 11 12 -2.7444 1.1777
4 11 13 7.1066 1.4908
4 11 14 -6.5154 -1.0376
4 12 0 -6.5696 -30.8676
4 12 1 -4.4096 3.5711
4 12 2 0.9328 9.9374
4 12 3 -10.2406 -5.7194
4 12 4 -2.6116 -7.7590
4 12 5 7.8369 0.2963
4 12 6 -0.8781 3.0659
4 12 7 -6.9532 -4.1333
4 12 8 -2.6167 -3.1914
4 12 9 -3.6846 1.1209
4 12 10 -4.8748 -0.0085
4 13 0 7.4242 0.6489
4 13 1 -2.9365 9.4567
4 13 2 8.8902 -0.8244
4 13 3 -0.7308 -2.3818
4 13 4 -2.8810 -0.3043
4 13 5 0.0094 0.7432
5 0 1 21.0397 7.5689
5 0 3 9.9899 -5.4117
5 0 5 3.7200 -1.1296
5 0 7 22.3823 -4.3195
5 0 9 -26.0146 -4.2359
5 0 11 -10.7523 -5.1675
5 0 13 -5.1692 -2.9552
5 0 15 7.0611 -3.2531
5 0 17 18.1445 -1.2964
5 0 19 7.8376 -1.5688
5 0 21 -3.5181 -0.8531
5 0 23 6.2294 -2.2059
5 1 0 15.2632 -26.1792
5 1 1 -6.0996 -11.2729
5 1 2 -17.4221 3.8157
5 1 3 -19.2494 5.5042
5 1 4 13.8842 -6.5335
5 1 5 -7.1805 -4.6446
5 1 6 -7.0782 2.7921
5 1 7 11.0113 3.1353
5 1 8 0.5967 -4.9003
5 1 9 0.9875 -0.5361
5 1 10 -6.0304 0.0102
5 1 11 -4.9655 2.4835
5 1 12 -8.6305 -5.3531
5 1 13 -1.0447 -1.5040
5 1 14 3.7579 -0.3119
5 1 15 -1.9932 0.8501
5 1 16 3.5456 -2.0299
5 1 17 0.7093 -0.9268
5 1 18 -3.2696 -0.0607
5 1 19 4.7640 0.5956
5 1 20 4.3017 -1.1442
5 1 21 1.7611 -0.5056
5 1 22 -7.5834 -0.8604
5 2 0 7.1836 4.5976
5 2 1 14.6083 3.4070
5 2 2 7.8144 -3.3327
5 2 3 35.7535 1.1124
5 2 4 0.2892 -0.1012
5 2 5 -5.2664 1.5692
5 2 6 4.3263 0.2645
5 2 7 3.5804 2.0357
5 2 8 5.8461 2.0474
5 2 9 -3.0798 0.2926
5 2 10 2.0492 1.7609
5 2 11 5.2972 -1.4686
5 2 12 -3.9664 0.3802
5 2 13 -15.3441 1.0047
5 2 14 -1.4472 0.3449
5 2 15 -11.2500 0.3550
5 2 16 -0.2822 -0.1498
5 2 17 -7.2546 1.1990
5 2 18 3.1529 0.3495
5 2 19 -1.4287 -0.7644
5 2 20 5.6549 -0.2614
5 2 21 -3.4012 1.2340
5 2 22 -2.1062 -0.1271
5 3 0 6.3371 -27.6186
5 3 1 -9.4028 -1.0222
5 3 2 -13.7441 10.2630
5 3 3 11.1287 -6.2677
5 3 4 13.3537 -8.3163
5 3 5 2.3787 2.9560
5 3 6 -7.6813 3.8010
5 3 7 -10.4812 -0.5314
5 3 8 -6.5797 -3.8691
5 3 9 3.0444 2.9657
5 3 10 -2.8131 2.3329
5 3 11 -0.7666 1.8646
5 3 12 2.3053 -4.0319
5 3 13 -0.3509 0.2960
5 3 14 -5.1748 0.4977
5 3 15 5.8590 0.0972
5 3 16 -4.6734 -1.6725
5 3 17 16.0139 0.0444
5 3 18 1.5309 -0.5457
5 3 19 -0.0403 1.4256
5 3 20 1.9670 0.0121
5 3 21 3.6015 -0.5635
5 3 22 -3.2553 -2.1201
5 4 0 10.6872 -4.3383
5 4 1 12.1921 3.3980
5 4 2 3.2504 -1.6822
5 4 3 -10.2718 -6.6193
5 4 4 5.3095 -4.4994
5 4 5 -8.9663 -1.8723
5 4 6 9.7915 1.1672
5 4 7 17.0304 -4.0510
5 4 8 -12.4989 1.6371
5 4 9 -7.5004 -1.7011
5 4 10 0.2156 0.6650
5 4 11 -4.3749 -2.5411
5 4 12 4.5292 0.5234
5 4 13 -3.3002 -1.6946
5 4 14 12.1947 -0.7037
5 4 15 -0.2063 -0.9479
5 4 16 -0.3825 -0.4492
5 4 17 -14.3100 -1.6942
5 4 18 -0.5545 -0.4197
5 4 19 -16.4744 -1.0667
5 4 20 9.4990 0.2710
5 4 21 -4.7969 -1.8620
5 4 22 -1.4621 -0.5817
5 5 0 9.0775 -32.7235
5 5 1 -6.9077 -15.7726
5 5 2 -2.1740 8.7260
5 5 3 -3.5428 1.9759
5 5 4 7.2212 -8.0547
5 5 5 -14.1024 -6.3946
5 5 6 -5.9145 2.3815
5 5 7 4.1294 0.9384
5 5 8 6.1355 -2.2294
5 5 9 -8.0154 -2.7834
5 5 10 2.1029 2.0645
5 5 11 -3.0461 0.4833
5 5 12 -1.8349 -0.4731
5 5 13 5.5155 -3.0814
5 5 14 1.4176 -0.5107
5 5 15 -1.8703 -0.0382
5 5 16 0.3063 -0.3849
5 5 17 2.2771 -1.8607
5 5 18 6.6971 -1.4569
5 5 19 -6.8336 -1.0258
5 5 20 -0.3773 0.4435
5 5 21 0.0871 -1.7131
5 5 22 -3.0795 -1.8227
5 6 0 0.6063 11.8735
5 6 1 -9.2629 -7.8032
5 6 2 -6.0893 -4.4679
5 6 3 7.8263 4.6290
5 6 4 -0.3026 -4.1824
5 6 5 -1.4483 1.0535
5 6 6 4.8404 0.0721
5 6 7 -4.8671 3.7237
5 6 8 -14.0348 -0.5975
5 6 9 -8.0748 0.2250
5 6 10 1.0729 -0.7589
5 6 11 7.1615 7.2029
5 6 12 -5.3245 -1.1742
5 6 13 -0.9338 0.1729
5 6 14 -2.2469 -0.2179
5 6 15 1.7215 4.3273
5 6 16 -11.0923 -1.1567
5 6 17 -3.6267 -1.4081
5 6 18 -0.9733 -0.2165
5 6 19 2.3948 4.3865
5 6 20 -0.5171 -2.1728
5 6 21 9.4262 -3.9189
5 7 0 6.9397 -11.4029
5 7 1 -11.0601 1.5756
5 7 2 -3.3116 8.7157
5 7 3 6.1327 -1.8027
5 7 4 2.7212 -3.7337
5 7 5 0.5943 3.3998
5 7 6 -0.4796 5.0041
5 7 7 9.5959 -0.5898
5 7 8 5.3019 1.8242
5 7 9 15.5498 1.4984
5 7 10 9.2939 4.1630
5 7 11 -0.8675 -0.2619
5 7 12 3.4686 2.7029
5 7 13 10.1743 1.1516
5 7 14 0.8332 2.5849
5 7 15 26.3841 1.4019
5 7 16 0.6978 0.2520
5 7 17 17.3987 -0.7801
5 7 18 5.8946 1.3940
5 7 19 1.4599 0.1815
5 7 20 0.9326 -0.2406
5 8 0 2.0216 -5.5088
5 8 1 2.8610 -1.4556
5 8 2 -1.7501 4.9231
5 8 3 1.8505 -0.7179
5 8 4 -5.0911 -0.0375
5 8 5 -1.9013 1.0886
5 8 6 4.9675 0.2683
5 8 7 4.3647 -1.0998
5 8 8 3.5267 0.0684
5 8 9 4.4966 0.4319
5 8 10 14.1860 0.7124
5 8 11 4.8355 1.8268
5 8 12 2.8720 0.6245
5 8 13 0.8124 -0.4650
5 8 14 -0.2546 0.8802
5 8 15 -1.6693 1.7964
5 8 16 -7.1015 0.2183
5 8 17 0.9257 -1.9565
5 8 18 10.7129 1.3457
5 8 19 -2.1774 -0.5963
5 9 0 1.5148 -25.3081
5 9 1 -3.8958 -4.0036
5 9 2 -3.9840 11.4156
5 9 3 -10.9990 6.3183
5 9 4 -4.8270 -7.4774
5 9 5 -23.4045 -3.0818
5 9 6 7.5268 6.1733
5 9 7 -4.8313 0.4396
5 9 8 2.8360 -1.1907
5 9 9 -1.4383 -2.3849
5 9 10 -5.4874 2.4383
5 9 11 10.9759 0.0604
5 9 12 -2.4341 -0.0413
5 9 13 -1.5709 0.5305
5 9 14 4.2264 2.1499
5 9 15 -6.0133 0.3529
5 9 16 3.5841 -0.8861
5 9 17 2.9948 1.3457
5 9 18 1.0572 0.5007
5 10 0 8.1803 16.1310
5 10 1 -13.1882 -2.7342
5 10 2 8.6336 -1.0939
5 10 3 -1.6432 5.6749
5 10 4 2.7296 1.5996
5 10 5 2.5435 4.8603
5 10 6 4.0909 0.8383
5 10 7 -1.8230 2.3627
5 10 8 -3.6979 -2.5281
5 10 9 -0.5459 2.6200
5 10 10 4.3006 0.5293
5 10 11 2.1017 2.2080
5 10 12 -3.2924 -1.2388
5 10 13 6.4974 2.0068
5 10 14 5.8620 1.6044
5 10 15 3.3517 2.5712
5 10 16 -3.5794 3.7178
5 11 0 -3.0784 -2.6611
5 11 1 -4.5148 8.2979
5 11 2 0.0953 13.9127
5 11 3 -4.3505 -0.1865
5 11 4 -8.1605 -3.1549
5 11 5 12.1380 5.1473
5 11 6 -12.8617 7.7425
5 11 7 -1.5305 -1.8514
5 11 8 -7.0653 -0.7673
5 11 9 -1.3128 1.9229
5 11 10 -3.7607 5.0761
5 11 11 -3.0614 -0.3359
5 11 12 -4.5758 -1.0636
5 12 0 -3.4517 -14.1284
5 12 1 4.8073 4.2654
5 12 2 11.2443 6.7871
5 12 3 1.1904 -0.3705
5 12 4 -5.3729 1.2017
5 12 5 4.2748 3.3490
5 12 6 0.9124 2.2030
5 12 7 1.2804 -1.4542
5 12 8 4.6316 2.0784
5 12 9 6.6286 1.6424
5 12 10 -3.5743 -1.1767
5 13 0 4.3438 -20.1966
5 13 1 -4.3922 2.5908
5 13 2 3.4849 5.3785
5 13 3 0.9586 -0.0087
5 13 4 0.4975 -5.7759
6 0 0 -23.1085 -16.1933
6 0 2 -28.1805 0.3612
6 0 4 5.3503 -0.3949
6 0 6 -26.5273 1.5893
6 0 8 2.4567 1.3756
6 0 10 18.5956 3.8311
6 0 12 5.7005 1.2972
6 0 14 -1.3704 2.2456
6 0 16 -8.1062 -0.1310
6 0 18 -16.5594 0.6157
6 0 20 2.5816 -0.2988
6 0 22 -2.8881 0.8607
6 1 0 7.1365 23.9522
6 1 1 2.4069 7.9772
6 1 2 2.5096 -4.7879
6 1 3 7.4810 -0.2800
6 1 4 4.6697 1.5388
6 1 5 -6.8589 2.3276
6 1 6 3.2870 -0.3632
6 1 7 12.6289 1.3737
6 1 8 -3.8629 -1.1389
6 1 9 -2.0682 2.9872
6 1 10 0.3492 0.4684
6 1 11 12.3329 2.4667
6 1 12 3.2282 0.4358
6 1 13 1.4552 2.7048
6 1 14 3.1291 0.4391
6 1 15 -3.5683 0.8645
6 1 16 -0.0131 0.2291
6 1 17 0.4349 0.8777
6 1 18 -2.7732 0.3852
6 1 19 1.3102 0.3834
6 1 20 -0.8781 0.1649
6 1 21 -1.2363 0.9731
6 1 22 2.2431 -1.0629
6 2 0 5.4170 -29.4185
6 2 1 -7.4025 -1.1897
6 2 2 -35.1592 5.5838
6 2 3 -3.3155 1.5312
6 2 4 -11.1798 -8.1563
6 2 5 -4.2335 -3.4364
6 2 6 -1.1324 0.8459
6 2 7 -5.3637 -0.1228
6 2 8 1.1497 -6.5378
6 2 9 2.3182 -2.6228
6 2 10 -8.5059 2.2424
6 2 11 4.0058 1.1232
6 2 12 5.8064 -3.8273
6 2 13 4.4941 0.0135
6 2 14 14.2410 0.0775
6 2 15 1.9741 0.4966
6 2 16 12.0639 -3.2441
6 2 17 -1.6763 -0.8165
6 2 18 6.0049 -0.1155
6 2 19 -7.3232 0.0330
6 2 20 6.3243 -1.0562
6 2 21 -3.4836 0.1685
6 2 22 -2.5774 -1.5682
6 3 0 -7.5421 -24.3601
6 3 1 3.2540 0.7899
6 3 2 -6.6883 4.6426
6 3 3 6.7686 -1.2262
6 3 4 -10.1936 -3.7397
6 3 5 -5.3958 0.5894
6 3 6 4.7340 -1.9798
6 3 7 13.5421 0.2051
6 3 8 1.3131 -2.1618
6 3 9 5.4539 -0.4224
6 3 10 5.1272 -2.0097
6 3 11 5.8392 1.1085
6 3 12 4.4658 -0.0019
6 3 13 -0.6072 0.9915
6 3 14 -2.2809 -1.5880
6 3 15 8.2122 0.3339
6 3 16 -11.1214 0.2910
6 3 17 -0.0697 0.1987
6 3 18 -4.9685 -2.3189
6 3 19 -1.8950 0.7742
6 3 20 2.8859 -0.0582
6 3 21 0.3338 -0.1601
6 3 22 -10.5778 -1.2084
6 4 0 -15.7357 -32.6578
6 4 1 -5.0100 2.4005
6 4 2 -10.3422 14.7118
6 4 3 -2.0342 -0.3225
6 4 4 15.6187 -4.5110
6 4 5 -11.1775 -0.9855
6 4 6 -11.2914 7.5820
6 4 7 2.1321 -1.5184
6 4 8 -1.7768 -2.7632
6 4 9 7.0524 -0.4116
6 4 10 8.3906 4.4689
6 4 11 0.4778 -0.9363
6 4 12 3.6798 -0.1425
6 4 13 -2.5277 1.0642
6 4 14 0.9469 1.8714
6 4 15 -6.1729 0.6547
6 4 16 6.1095 0.4047
6 4 17 2.5843 -0.7674
6 4 18 17.8893 0.9484
6 4 19 -8.8899 -0.5249
6 4 20 12.3339 2.1992
6 4 21 -2.0438 -0.5472
6 4 22 -0.3042 -2.2213
6 5 0 7.1993 22.1076
6 5 1 -2.8505 2.9032
6 5 2 -2.4769 -3.0895
6 5 3 -3.0628 2.7615
6 5 4 1.0917 3.0558
6 5 5 -4.1852 0.9795
6 5 6 3.4224 0.7352
6 5 7 4.4458 0.3589
6 5 8 -1.2657 -0.3684
6 5 9 -6.7480 -1.0035
6 5 10 12.5429 2.8265
6 5 11 3.9070 0.3781
6 5 12 -8.5127 0.5793
6 5 13 -2.3370 -0.7015
6 5 14 0.7929 2.0586
6 5 15 2.3725 2.0469
6 5 16 -2.7052 -0.2244
6 5 17 -3.6892 -0.9875
6 5 18 4.5251 1.7600
6 5 19 -6.7824 2.7942
6 5 20 2.1571 0.1644
6 5 21 2.8981 -3.0437
6 6 0 9.8944 -8.2190
6 6 1 -5.4196 -1.7466
6 6 2 -7.3300 9.7690
6 6 3 0.5824 5.0428
6 6 4 -3.6705 -7.1853
6 6 5 -8.0295 -1.6009
6 6 6 1.1289 2.4151
6 6 7 10.6435 2.2286
6 6 8 4.7842 -4.1062
6 6 9 7.4550 -0.8735
6 6 10 -3.3913 -1.7868
6 6 11 -1.0359 1.8645
6 6 12 -1.0679 -3.9351
6 6 13 4.9919 0.0140
6 6 14 0.9778 -0.4103
6 6 15 6.6837 1.6490
6 6 16 -3.7504 -0.5837
6 6 17 6.9441 -0.6129
6 6 18 2.8654 -1.6780
6 6 19 -0.8471 1.6437
6 6 20 -8.9976 -0.4385
6 6 21 1.7374 0.8546
6 7 0 3.7455 -17.7566
6 7 1 -5.6036 -4.6646
6 7 2 2.1654 2.7753
6 7 3 0.3932 3.5065
6 7 4 -4.9475 -2.3592
6 7 5 -3.1134 -1.8638
6 7 6 1.8177 -1.6630
6 7 7 0.7454 -0.7214
6 7 8 -16.8810 -1.8781
6 7 9 -8.7503 -3.6789
6 7 10 -0.2067 -0.9226
6 7 11 -3.5316 -0.6215
6 7 12 1.5488 -0.4429
6 7 13 -2.6082 -3.7648
6 7 14 -11.7310 -2.6014
6 7 15 1.2201 1.8756
6 7 16 -20.9910 -0.5179
6 7 17 -4.7926 -1.8590
6 7 18 -3.2475 -0.5675
6 7 19 -5.8335 1.7263
6 7 20 -0.0193 -1.1821
6 8 0 -2.4542 -16.8400
6 8 1 -1.6436 4.2120
6 8 2 -4.0404 13.4786
6 8 3 7.6221 -3.9757
6 8 4 0.7836 -7.2322
6 8 5 4.1056 0.6748
6 8 6 -2.4319 6.7091
6 8 7 -3.1378 -0.9279
6 8 8 -3.3198 -2.9586
6 8 9 -8.5985 -1.0607
6 8 10 -1.2845 1.9447
6 8 11 -2.6705 -1.8697
6 8 12 -3.6475 -1.5165
6 8 13 0.8056 -1.1321
6 8 14 3.6630 1.4794
6 8 15 7.1061 -1.0049
6 8 16 0.3663 -0.0448
6 8 17 0.6252 -0.4141
6 8 18 2.6843 2.8380
6 9 0 6.0522 16.2939
6 9 1 2.3187 -2.0455
6 9 2 4.9494 -4.8921
6 9 3 6.4369 2.1660
6 9 4 10.8847 2.3823
6 9 5 -1.4168 1.1745
6 9 6 13.2591 1.0917
6 9 7 -4.3919 -1.2948
6 9 8 1.8965 0.2089
6 9 9 4.2143 0.3853
6 9 10 -3.5984 1.5809
6 9 11 2.0210 -0.8989
6 9 12 -13.7325 -1.7509
6 9 13 -1.8197 -0.8644
6 9 14 11.4881 0.6022
6 9 15 -4.0923 -0.2506
6 9 16 -2.9520 -1.3544
6 9 17 -1.0805 -0.2265
6 10 0 13.1447 -8.4278
6 10 1 -5.8885 -3.3146
6 10 2 9.7003 6.4881
6 10 3 -2.0909 4.4072
6 10 4 -0.0559 -10.4217
6 10 5 -5.5985 -2.4325
6 10 6 2.2494 2.8881
6 10 7 -3.4086 2.7248
6 10 8 -0.5051 -4.6911
6 10 9 -4.4941 -0.6140
6 10 10 -0.2777 1.1547
6 10 11 -0.0285 0.6517
6 10 12 -1.6786 -3.5689
6 10 13 -3.3729 -0.7593
6 10 14 -7.5144 -0.0886
6 10 15 -5.4908 -2.3129
6 11 0 -5.4479 -15.3986
6 11 1 1.1784 -10.3372
6 11 2 6.8991 1.3855
6 11 3 0.1879 -1.9437
6 11 4 -9.3315 -3.4867
6 11 5 10.1100 -1.8406
6 11 6 -0.8942 -0.7822
6 11 7 7.9508 -1.6835
6 11 8 2.4681 0.9820
6 11 9 4.4443 -0.7829
6 11 10 1.9748 -1.9062
6 11 11 1.6222 -1.7552
6 11 12 0.1800 1.1520
6 12 0 -7.8981 -18.2809
6 12 1 -1.0799 4.5842
6 12 2 -2.8454 6.0299
6 12 3 -2.7381 -6.6201
6 12 4 -3.8796 -6.5875
6 12 5 6.8645 3.2348
6 12 6 -2.7686 3.9251
6 12 7 -6.8298 -3.2790
6 12 8 -4.4204 -4.6244
6 12 9 4.5548 2.7097
6 13 0 -0.2956 -0.2725
6 13 1 -4.0157 0.1244
6 13 2 -0.2251 -2.2694
6 13 3 -2.2952 2.1797
7 0 1 19.3981 5.6668
7 0 3 9.9691 -2.4075
7 0 5 5.4881 2.4576
7 0 7 20.3650 -0.3688
7 0 9 -14.3193 0.1386
7 0 11 -5.2008 -0.6145
7 0 13 -0.2667 0.1538
7 0 15 1.0965 0.6075
7 0 17 7.9091 0.6497
7 0 19 6.5306 0.9093
7 0 21 -4.5147 -0.1648
7 1 0 6.1527 -24.3567
7 1 1 -4.8248 -8.4331
7 1 2 -15.1212 5.1152
7 1 3 10.4269 5.6386
7 1 4 5.3538 -5.8094
7 1 5 -4.2179 -3.6413
7 1 6 -9.6826 1.8174
7 1 7 -4.0793 3.4594
7 1 8 -1.4151 -4.2117
7 1 9 4.5226 -2.4284
7 1 10 -3.7707 -0.0553
7 1 11 0.5283 -0.3934
7 1 12 -5.8481 -3.4089
7 1 13 -5.5666 -1.8052
7 1 14 -0.1008 1.1380
7 1 15 -1.8066 0.5630
7 1 16 3.6371 -1.7627
7 1 17 1.2907 -0.8900
7 1 18 -4.1527 0.5613
7 1 19 0.5909 0.0800
7 1 20 2.2150 -1.2636
7 1 21 -4.0100 0.0132
7 1 22 -6.5009 -0.1418
7 2 0 5.2943 1.6377
7 2 1 5.3417 5.4230
7 2 2 2.7107 -1.0430
7 2 3 22.9063 -0.4321
7 2 4 2.2636 3.0262
7 2 5 -0.4722 2.7606
7 2 6 8.1223 1.4839
7 2 7 3.6474 2.7625
7 2 8 -2.2805 0.4939
7 2 9 4.2889 1.8523
7 2 10 -6.9179 -0.1942
7 2 11 7.2419 1.9836
7 2 12 -4.1245 -1.9593
7 2 13 -10.4598 1.0014
7 2 14 -2.9015 -0.6114
7 2 15 -9.9768 2.1615
7 2 16 -0.1821 0.4801
7 2 17 -11.4010 0.7881
7 2 18 5.3206 0.3300
7 2 19 -7.5565 1.3421
7 2 20 6.4083 0.2538
7 2 21 -3.0931 -0.4745
7 2 22 1.5517 -1.5617
7 3 0 5.0202 -24.6827
7 3 1 14.9942 14.4494
7 3 2 -12.1813 11.5565
7 3 3 7.2740 -1.0382
7 3 4 2.1958 -6.1532
7 3 5 3.2001 6.0564
7 3 6 -7.4594 5.3163
7 3 7 -0.8771 0.5317
7 3 8 -7.5394 -3.6761
7 3 9 -3.6722 3.0362
7 3 10 -10.2874 3.2203
7 3 11 -9.9494 -1.8350
7 3 12 -1.8953 -3.1719
7 3 13 -0.9941 1.6444
7 3 14 -3.4706 1.9725
7 3 15 4.1608 0.3697
7 3 16 -4.5573 -0.6660
7 3 17 4.7148 1.6243
7 3 18 1.8166 0.4589
7 3 19 -4.1140 1.1929
7 3 20 1.1310 -0.2367
7 3 21 3.1564 0.3516
7 3 22 -4.5727 -1.4637
7 4 0 -1.6432 -10.4473
7 4 1 15.6780 0.1458
7 4 2 -0.0986 4.0043
7 4 3 0.1580 -0.9529
7 4 4 5.7248 2.6819
7 4 5 -4.4425 -1.9712
7 4 6 7.0768 2.9389
7 4 7 9.3723 0.9529
7 4 8 -7.1137 -0.8424
7 4 9 -9.6819 -0.7075
7 4 10 -1.6806 1.0169
7 4 11 -2.3622 -0.3757
7 4 12 -6.2623 -0.2008
7 4 13 -4.1079 -1.5451
7 4 14 4.8759 -1.2232
7 4 15 -0.4629 0.8088
7 4 16 1.0285 1.4640
7 4 17 -9.4006 -1.5202
7 4 18 4.8941 0.8244
7 4 19 -14.7280 0.5867
7 4 20 5.3504 1.5398
7 4 21 -4.5426 -1.9051
7 4 22 -5.1178 -0.4085
7 5 0 3.3382 -26.5583
7 5 1 -0.1619 -1.9726
7 5 2 -1.7877 8.4592
7 5 3 8.6993 5.7190
7 5 4 8.5535 -7.5723
7 5 5 -2.2040 -3.5594
7 5 6 -3.2384 5.4166
7 5 7 2.7404 5.3507
7 5 8 0.2009 -3.5602
7 5 9 -10.4262 -3.0796
7 5 10 -0.0293 2.5968
7 5 11 -1.0315 0.6289
7 5 12 -1.2996 -1.6183
7 5 13 5.6202 -1.4282
7 5 14 0.1026 0.2424
7 5 15 -2.0190 0.9086
7 5 16 -4.9067 -0.3244
7 5 17 -1.1136 -0.5223
7 5 18 8.3748 -0.7084
7 5 19 -5.5948 0.7245
7 5 20 2.9969 1.1562
7 5 21 2.5539 -0.7112
7 6 0 9.1476 3.6781
7 6 1 2.0733 -4.9892
7 6 2 7.3270 -2.9053
7 6 3 8.7171 1.8837
7 6 4 6.3373 3.0469
7 6 5 -1.1052 -1.5466
7 6 6 1.3372 -0.0221
7 6 7 -0.1860 1.7398
7 6 8 -15.2252 -0.4539
7 6 9 1.9572 -0.0391
7 6 10 3.5202 0.8072
7 6 11 3.5147 2.5482
7 6 12 -3.4814 -0.9653
7 6 13 -4.9768 -1.6117
7 6 14 -1.3705 0.1409
7 6 15 6.5126 0.8975
7 6 16 -5.7109 -0.2678
7 6 17 1.7637 -2.0062
7 6 18 -0.0214 0.6284
7 6 19 1.7102 3.6595
7 6 20 -1.9382 -1.3848
7 6 21 9.9641 -2.4964
7 7 0 10.1694 -17.5955
7 7 1 3.7359 10.4420
7 7 2 2.5468 7.0873
7 7 3 1.0499 -3.4594
7 7 4 2.2571 -6.9155
7 7 5 -0.9850 3.3462
7 7 6 -0.8748 4.8116
7 7 7 6.0830 0.9863
7 7 8 3.5119 -3.6559
7 7 9 8.1543 2.6738
7 7 10 3.0922 2.8186
7 7 11 -6.2337 -0.4584
7 7 12 -0.1994 -1.1521
7 7 13 -0.1658 1.9265
7 7 14 2.2044 0.6940
7 7 15 9.6595 1.1937
7 7 16 -0.3421 -1.8973
7 7 17 7.5808 0.9144
7 7 18 9.1970 0.2793
7 7 19 -1.0183 1.6037
7 7 20 1.3167 -1.0107
7 8 0 -1.0526 -17.7023
7 8 1 4.0855 -4.6988
7 8 2 -0.0944 1.5094
7 8 3 2.9692 0.5340
7 8 4 -11.5249 1.3383
7 8 5 1.4026 -1.8715
7 8 6 -0.4635 0.0219
7 8 7 3.6020 -0.5692
7 8 8 4.6971 1.0430
7 8 9 -3.0950 -0.3797
7 8 10 4.7343 1.5223
7 8 11 3.3963 -0.3244
7 8 12 -5.9329 1.4091
7 8 13 -0.8301 -1.1506
7 8 14 -0.9926 0.9334
7 8 15 -4.4441 -0.5099
7 8 16 -8.3373 0.7127
7 8 17 -1.6105 -2.2685
7 8 18 5.3205 -0.2951
7 9 0 -3.9517 -17.7573
7 9 1 -5.2801 -4.7971
7 9 2 -4.0611 7.9752
7 9 3 -1.8023 1.4580
7 9 4 -2.6745 -7.9701
7 9 5 -9.5119 -4.9149
7 9 6 3.3957 4.7390
7 9 7 -5.7817 2.4300
7 9 8 -4.1754 -5.2744
7 9 9 -3.7932 -2.2090
7 9 10 -2.1907 3.2991
7 9 11 13.9195 2.0041
7 9 12 2.0989 -2.0208
7 9 13 -1.5034 -0.6474
7 9 14 2.6635 2.1196
7 9 15 -7.8373 0.1526
7 9 16 1.3878 -0.2143
7 10 0 0.2980 11.4161
7 10 1 -7.9898 -2.9297
7 10 2 0.2739 -7.5270
7 10 3 -6.0362 2.1258
7 10 4 -0.4100 0.2723
7 10 5 -2.7941 0.0162
7 10 6 7.2988 -1.2299
7 10 7 -2.4208 0.1542
7 10 8 4.6202 -0.6617
7 10 9 4.2413 0.0622
7 10 10 5.1899 0.5205
7 10 11 -3.7358 0.8235
7 10 12 -2.7267 -0.1893
7 10 13 3.6339 0.3054
7 10 14 10.7246 2.1240
7 10 15 6.7393 1.0089
7 11 0 -4.0376 -8.7435
7 11 1 2.6511 4.3351
7 11 2 2.3813 9.4410
7 11 3 -0.3480 -3.7435
7 11 4 -2.1722 -4.7711
7 11 5 6.4010 3.5248
7 11 6 -5.8590 4.6037
7 11 7 -6.3788 -3.0151
7 11 8 -3.9163 -4.4737
7 11 9 -2.2850 1.5529
7 11 10 -2.7048 3.6653
7 11 11 -1.8193 -0.8095
7 11 12 2.1802 -0.9946
7 12 0 -5.0579 -16.6858
7 12 1 6.5881 1.0671
7 12 2 4.2404 5.7030
7 12 3 2.4672 1.0873
7 12 4 -6.6922 -2.4096
7 12 5 3.2313 -1.7610
7 12 6 2.3645 -1.6100
7 12 8 0.2243 -1.5630
7 13 0 2.2503 -1.6387
7 13 1 1.8941 2.2153
7 13 2 2.4958 1.2709
8 0 0 4.4429 -0.9440
8 0 2 -15.2849 5.1658
8 0 4 1.4582 -1.6010
8 0 6 -14.7389 -0.4566
8 0 8 -0.1835 -1.6682
8 0 10 5.6562 -0.0275
8 0 12 -2.0869 -1.6782
8 0 14 -0.4896 -0.3861
8 0 16 3.5846 -1.6882
8 0 18 -5.6016 0.1122
8 0 20 3.0813 -0.8047
8 1 0 11.5058 20.8104
8 1 1 2.4840 3.5201
8 1 2 -9.3307 -4.1954
8 1 3 8.4612 0.1982
8 1 4 -9.1375 1.3119
8 1 5 -1.9670 2.4189
8 1 6 7.6979 -1.1928
8 1 7 8.5029 -0.4447
8 1 8 -1.9320 0.1063
8 1 9 -5.3736 0.8467
8 1 10 -6.5347 1.9055
8 1 11 4.0630 1.3170
8 1 12 2.8798 1.3839
8 1 13 1.5105 -1.1018
8 1 14 5.4581 0.4811
8 1 15 -1.2813 0.1659
8 1 16 -0.1329 -0.3050
8 1 17 -0.9884 -0.2852
8 1 18 0.3636 0.1907
8 1 19 2.7258 1.1986
8 1 20 3.2397 0.1045
8 1 21 0.2165 -0.7570
8 2 0 8.0649 -26.1809
8 2 1 -1.0146 0.2460
8 2 2 -12.1476 12.4605
8 2 3 1.7020 -0.3026
8 2 4 -0.3283 -5.6060
8 2 5 -6.5506 -2.6614
8 2 6 -4.0958 4.1327
8 2 7 -3.5075 0.7957
8 2 8 -2.9784 -3.8365
8 2 9 7.8160 0.0435
8 2 10 -9.6843 1.4694
8 2 11 5.6616 2.1442
8 2 12 0.1768 -2.3620
8 2 13 0.9790 1.3287
8 2 14 5.0540 1.4217
8 2 15 1.0466 -0.2187
8 2 16 9.0018 -1.9336
8 2 17 -2.6417 -0.4405
8 2 18 9.7221 0.8977
8 2 19 -4.1298 -0.2569
8 2 20 5.5641 -0.1974
8 2 21 -4.3051 0.8006
8 2 22 -3.7491 1.2390
8 3 0 -18.1096 -33.1228
8 3 1 0.7017 -0.2774
8 3 2 -8.0746 0.3476
8 3 3 7.2696 0.2224
8 3 4 -3.7792 -4.5541
8 3 5 -0.2931 -0.8548
8 3 6 -2.1721 -1.0154
8 3 7 7.0354 0.5472
8 3 8 -1.0679 -1.4334
8 3 9 5.3461 -1.2066
8 3 10 8.9043 0.7062
8 3 11 9.7507 1.3559
8 3 12 3.8891 1.6734
8 3 13 -2.2410 -1.3030
8 3 14 -0.5937 -1.6690
8 3 15 4.8633 0.3543
8 3 16 -0.2057 0.1932
8 3 17 0.5698 -2.0221
8 3 18 3.6493 -2.3421
8 3 19 -1.9292 1.6407
8 3 20 2.9178 1.4187
8 3 21 2.6068 -1.4228
8 3 22 -5.0335 -1.1593
8 4 0 -8.9764 -21.8662
8 4 1 6.4844 1.0750
8 4 2 -12.3338 8.7229
8 4 3 -0.6784 -5.1893
8 4 4 5.3626 -6.0438
8 4 5 -9.4053 -2.6587
8 4 6 -4.0638 4.2921
8 4 7 1.5478 -0.8423
8 4 8 4.7845 -5.0935
8 4 9 1.7593 1.2398
8 4 10 5.0310 3.2982
8 4 11 5.3812 -1.0727
8 4 12 1.3006 -1.7189
8 4 13 3.7594 1.0094
8 4 14 4.4154 1.8709
8 4 15 -5.5318 -1.3448
8 4 16 -1.5896 -1.3312
8 4 17 -2.4316 -1.2788
8 4 18 9.0999 0.6079
8 4 19 -5.4862 -0.9523
8 4 20 6.0551 0.1119
8 4 21 3.4429 -1.2592
8 5 0 -1.2092 8.4041
8 5 1 2.1775 -0.3052
8 5 2 -7.2185 -8.8248
8 5 3 -1.3752 0.8225
8 5 4 -4.1640 0.5481
8 5 5 -5.1395 -2.4226
8 5 6 0.4696 -3.4587
8 5 7 6.1405 1.2630
8 5 8 1.3768 -2.3208
8 5 9 -1.2902 -1.0675
8 5 10 10.9489 1.0141
8 5 11 2.8153 1.6092
8 5 12 -7.2924 -1.9620
8 5 13 -1.2746 -1.2538
8 5 14 2.4859 0.2419
8 5 15 7.8119 1.7953
8 5 16 0.8851 -1.7988
8 5 17 0.8030 -2.4678
8 5 18 6.2477 -0.5008
8 5 19 -8.5094 1.7593
8 5 20 0.3326 -1.1895
8 5 21 -0.3813 -4.3109
8 6 0 -2.4323 -22.7579
8 6 1 -8.7729 -0.9653
8 6 2 -6.9606 7.6415
8 6 3 -8.7279 -1.5757
8 6 4 -0.6889 -5.5885
8 6 5 -6.7008 -4.4686
8 6 6 1.8844 5.3525
8 6 7 9.1775 1.5766
8 6 8 -2.6665 -3.6725
8 6 9 2.6493 -2.4758
8 6 10 -4.4864 3.2237
8 6 11 -2.7409 0.7105
8 6 12 4.0651 -0.2365
8 6 13 0.9682 -1.2810
8 6 14 -0.2582 2.3430
8 6 15 -2.5819 -0.1313
8 6 16 -9.4798 0.9697
8 6 17 0.0829 -1.3088
8 6 18 1.4584 -0.4040
8 6 19 0.6603 0.3999
8 6 20 -6.6533 -0.9742
8 7 0 -14.9649 -25.0642
8 7 1 -7.5640 1.3116
8 7 2 0.5504 2.6517
8 7 3 -1.7579 1.0215
8 7 4 -0.4469 -0.6561
8 7 5 0.6652 -1.5901
8 7 6 0.7399 -0.6225
8 7 7 -0.1614 2.7374
8 7 8 -8.5872 -1.3879
8 7 9 -2.5178 0.7788
8 7 10 2.7270 -0.7058
8 7 11 5.3124 1.5707
8 7 12 2.2135 0.4023
8 7 13 -2.3793 0.0746
8 7 14 2.4674 -1.0400
8 7 15 -0.4666 2.5027
8 7 16 -4.0259 0.1571
8 7 17 -5.0054 -0.4119
8 7 18 -0.6336 -2.3649
8 8 0 -5.1127 -20.8277
8 8 1 1.6984 9.0888
8 8 2 -4.8877 7.5920
8 8 3 3.6780 -3.7640
8 8 4 -3.6683 -5.5806
8 8 5 9.5073 1.0669
8 8 6 -4.3657 5.1847
8 8 7 -1.7182 -1.0926
8 8 8 3.0739 -4.3547
8 8 9 -5.4761 0.0297
8 8 10 1.9509 3.9530
8 8 11 4.5995 -0.8061
8 8 12 -5.2775 -1.9875
8 8 13 3.2821 -0.0355
8 8 14 5.3208 2.4508
8 8 15 3.6935 -1.0188
8 8 16 2.3542 0.0220
8 8 17 1.9398 0.4970
8 8 18 5.0788 2.3195
8 9 0 3.5982 14.9534
8 9 1 3.8375 0.6840
8 9 2 1.8752 -2.7953
8 9 3 1.1105 0.6972
8 9 4 1.3360 4.7802
8 9 5 -1.3920 -1.7008
8 9 6 7.1373 -0.8801
8 9 7 1.8440 2.9219
8 9 8 5.3471 -0.1128
8 9 9 5.3389 -0.0463
8 9 10 -1.6333 -0.2342
8 9 11 -3.8617 0.3352
8 9 12 -9.9677 -0.8420
8 9 13 -1.8891 -0.0302
8 9 14 12.2869 1.7406
8 9 15 -1.5144 -1.2936
8 9 16 0.4812 -0.2645
8 10 0 -1.7949 -17.9393
8 10 1 4.3741 0.2572
8 10 2 5.6636 7.4135
8 10 3 5.3730 4.6418
8 10 4 4.0906 -3.3136
8 10 5 -1.9305 -1.4035
8 10 6 5.5743 5.1948
8 10 7 -4.1055 2.1926
8 10 8 -3.8307 -2.9821
8 10 9 -7.2299 -1.1830
8 10 10 -0.3448 3.0051
8 10 11 3.1060 1.0905
8 10 12 5.0652 -2.3975
8 10 13 -4.4782 -2.0475
8 10 14 -6.1954 2.0037
8 11 0 -8.3865 -11.8999
8 11 1 2.4889 2.7133
8 11 2 2.3410 6.5227
8 11 3 -3.8102 0.2900
8 11 4 -4.1093 -0.5113
8 11 5 1.7554 -0.5465
8 11 6 2.4356 1.0470
8 11 7 0.7638 2.5154
8 11 8 6.2956 0.9568
8 11 9 3.8614 0.6038
8 11 10 3.1811 -0.3099
8 11 11 -0.1506 -1.3863
8 12 0 -7.3429 -11.5954
8 12 1 2.0086 4.1169
8 12 2 -3.7770 3.0768
8 12 3 0.1401 -4.0140
8 12 4 -1.6583 0.1956
8 12 5 3.9850 5.8329
8 12 6 -1.1051 1.7202
9 0 1 -8.0504 -5.6455
9 0 3 8.7938 -4.0067
9 0 5 -2.9821 2.1321
9 0 7 7.1708 -0.0092
9 0 9 -6.2452 0.9833
9 0 11 5.0051 0.7044
9 0 13 2.0892 0.9993
9 0 15 -5.3212 1.1427
9 0 17 -5.5154 -0.3523
9 0 19 0.4588 0.1048
9 0 21 -3.5737 -0.4933
9 1 0 7.0220 -18.3573
9 1 1 -4.0633 -8.9361
9 1 2 -11.4601 7.2430
9 1 3 13.8065 3.9494
9 1 4 2.9533 -6.2411
9 1 5 -0.4129 -1.8602
9 1 6 -4.8525 3.8415
9 1 7 -1.6754 2.2257
9 1 8 3.8633 -0.9769
9 1 9 7.1484 -2.1871
9 1 10 3.9239 1.8700
9 1 11 3.8839 -0.1827
9 1 12 -0.7232 -0.7503
9 1 13 -5.8160 -1.3545
9 1 14 -0.6669 2.7832
9 1 15 -2.0026 0.9856
9 1 16 3.2970 -1.0843
9 1 17 -0.8136 0.2199
9 1 18 -1.3569 0.7977
9 1 19 -2.4302 0.1809
9 1 20 -0.8985 -1.0145
9 1 21 -5.2813 -0.6955
9 2 0 -0.5654 1.5650
9 2 1 -3.1796 -2.4099
9 2 2 -4.0478 -1.5504
9 2 3 0.1054 -5.0290
9 2 4 0.7658 0.8623
9 2 5 -3.2381 -0.6591
9 2 6 6.4511 -0.2928
9 2 7 6.2299 -2.4022
9 2 8 -2.9036 -0.6373
9 2 9 3.5159 -0.9183
9 2 10 -7.6338 -1.1839
9 2 11 7.9630 -0.2327
9 2 12 -1.4252 -1.3947
9 2 13 -0.9862 -2.2689
9 2 14 1.4978 -0.0178
9 2 15 -1.0314 0.9078
9 2 16 0.3839 0.7732
9 2 17 -8.8960 -2.0580
9 2 18 1.1957 -0.1836
9 2 19 -5.7385 0.4737
9 2 20 1.4312 0.0694
9 2 21 1.6969 -3.5969
9 3 0 6.7272 -22.3592
9 3 1 7.9035 9.7526
9 3 2 -6.4292 8.5223
9 3 3 2.6836 -3.4597
9 3 4 0.6494 -7.3154
9 3 5 2.4689 3.5149
9 3 6 -2.9510 4.7561
9 3 7 4.8883 -2.8607
9 3 8 0.5100 -3.4182
9 3 9 -2.6440 1.1918
9 3 10 -8.0948 2.7425
9 3 11 -3.3176 -3.5888
9 3 12 -1.6566 -2.3498
9 3 13 1.7180 0.5896
9 3 14 2.6602 2.3629
9 3 15 -2.1808 -0.8342
9 3 16 -3.8828 -0.4655
9 3 17 -4.5538 1.3580
9 3 18 2.1990 1.4580
9 3 19 -4.1106 -1.0010
9 3 20 -1.4180 -1.1007
9 3 21 -0.4327 -1.6991
9 4 0 -9.6178 -6.8762
9 4 1 5.8496 -1.0160
9 4 2 -4.8090 4.5264
9 4 3 4.9305 2.7178
9 4 4 7.8102 0.1286
9 4 5 -3.9445 -1.8002
9 4 6 6.2844 1.7428
9 4 7 0.5558 3.7930
9 4 8 -2.7268 -1.2667
9 4 9 -8.8664 -2.2875
9 4 10 1.9187 -0.3662
9 4 11 2.5402 2.1568
9 4 12 -8.3743 0.0978
9 4 13 -7.2618 -2.7388
9 4 14 3.5872 0.6232
9 4 15 1.3319 2.5515
9 4 16 4.0053 1.8643
9 4 17 2.2978 -1.7152
9 4 18 3.3552 -0.3731
9 4 19 -4.1469 2.4977
9 4 20 -1.3582 1.4811
9 4 21 0.7363 -2.1454
9 5 0 -2.1909 -19.5283
9 5 1 4.7605 -2.0153
9 5 2 -4.9364 9.6204
9 5 3 5.2389 5.9648
9 5 4 4.9669 -3.9009
9 5 5 -2.0918 -1.3403
9 5 6 -2.6153 4.3917
9 5 7 3.3014 4.9643
9 5 8 -2.7480 -3.5644
9 5 9 -8.2976 -1.3029
9 5 10 0.4229 2.2094
9 5 11 -0.6817 3.0357
9 5 12 -1.0840 -2.1495
9 5 13 3.1394 0.2169
9 5 14 -3.8378 1.2225
9 5 15 -2.7902 1.7478
9 5 16 -10.9276 -0.2195
9 5 17 -2.2462 0.9618
9 5 18 5.4744 1.4760
9 5 19 -4.1802 1.5374
9 5 20 3.8034 0.9019
9 6 0 3.6827 6.6025
9 6 1 3.0373 5.8644
9 6 2 9.7503 0.6654
9 6 3 1.2708 1.3070
9 6 4 6.8272 3.8675
9 6 5 -4.0163 -1.6522
9 6 6 0.0793 0.6214
9 6 7 -0.2678 0.5903
9 6 8 -5.6332 1.0456
9 6 9 3.7650 -1.9395
9 6 10 6.1956 1.0843
9 6 11 -0.6347 -1.1264
9 6 12 -1.2361 0.0924
9 6 13 -4.7681 -2.6817
9 6 14 7.3341 1.8510
9 6 15 8.0437 0.1499
9 6 16 4.2110 0.5507
9 6 17 3.1782 -2.1522
9 6 18 1.2414 0.8813
9 6 19 -0.2608 2.4416
9 6 20 -1.7907 0.0075
9 7 0 6.9257 -25.2607
9 7 1 8.5235 7.3887
9 7 2 4.7612 8.8823
9 7 3 -6.3153 -4.6858
9 7 4 -0.9999 -3.8813
9 7 5 1.0111 2.2219
9 7 6 -1.5236 3.8732
9 7 7 3.2458 -2.6596
9 7 8 2.3811 -5.9173
9 7 9 1.6639 1.2336
9 7 10 -5.6446 1.4387
9 7 11 -0.3249 -1.5103
9 7 12 -4.5526 -3.1024
9 7 13 -1.2031 -0.0520
9 7 14 4.3807 0.2122
9 7 15 -4.7798 -1.4536
9 7 16 0.8393 -1.6579
9 7 17 1.5207 1.2512
9 7 18 7.7313 0.5687
9 8 0 -8.5743 -16.0044
9 8 1 6.0207 4.7546
9 8 2 3.0540 2.0541
9 8 3 5.1503 1.5832
9 8 4 -8.0994 -0.5042
9 8 5 6.3078 -1.1903
9 8 6 -5.6718 -0.1597
9 8 7 0.6034 2.6191
9 8 8 2.5424 0.2204
9 8 9 -5.8519 -1.5994
9 8 10 2.2985 -1.2421
9 8 11 5.7046 0.9397
9 8 12 -6.7326 -0.5194
9 8 13 1.4990 -0.3691
9 8 14 0.0611 -0.5009
9 8 15 -3.8641 0.1003
9 8 16 -4.1841 1.0724
9 8 17 -2.8923 -1.2921
9 9 0 -4.4145 -18.7240
9 9 1 -1.5891 -3.9637
9 9 2 1.1779 6.3825
9 9 3 -0.0225 1.2732
9 9 4 1.6140 -1.2938
9 9 5 -3.8640 -2.3345
9 9 6 0.9640 2.9662
9 9 7 -4.4403 2.4408
9 9 8 -5.6370 -4.6900
9 9 9 -5.5621 -1.2052
9 9 10 1.9877 3.3400
9 9 11 7.1623 1.7161
9 9 12 4.5671 -3.7805
9 9 13 -3.9897 -2.1625
9 9 14 0.1824 2.6652
9 9 15 -6.8957 -0.4151
9 10 0 -7.1611 9.3996
9 10 1 5.3292 4.9237
9 10 2 -8.3746 -3.4715
9 10 3 -4.8816 -2.8351
9 10 4 -5.2920 1.1471
9 10 5 -3.6612 -2.7093
9 10 6 0.2228 -0.4929
9 10 7 -2.1824 -0.0919
9 10 8 3.6416 0.0119
9 10 9 6.0616 -1.5434
9 10 10 2.1126 -0.6226
9 10 11 -6.6415 0.6713
9 10 12 -5.0821 0.3514
9 10 13 0.0682 -0.8202
9 11 0 -6.5673 -26.0621
9 11 1 3.6393 0.8239
9 11 2 2.1665 2.5215
9 11 3 -2.0602 -5.3600
9 11 4 2.1256 -3.4894
9 11 5 2.1370 1.6958
9 11 6 1.1072 1.3944
9 11 7 -4.4419 -2.2317
9 11 8 -0.8338 -5.2398
9 11 9 -6.4368 1.0951
9 11 10 -3.7181 2.9671
9 12 0 -5.0287 -12.8980
9 12 1 4.7648 2.9581
9 12 2 1.5625 6.6026
9 12 3 1.5315 -1.8345
9 12 4 -2.6936 -2.3395
9 12 5 0.0961 -5.0669
10 0 0 24.7785 3.4205
10 0 2 -5.7857 6.3487
10 0 4 4.5905 -1.7224
10 0 6 1.6348 0.6473
10 0 8 4.0605 -1.4175
10 0 10 -1.0788 0.9605
10 0 12 -6.1854 -1.5811
10 0 14 3.0745 0.2194
10 0 16 10.7814 -0.9200
10 0 18 4.6557 1.7103
10 0 20 1.6585 -0.4469
10 1 0 7.9285 21.7154
10 1 1 0.1115 -0.0214
10 1 2 -4.5260 -1.8019
10 1 3 6.2755 -1.4413
10 1 4 -5.2136 0.3027
10 1 5 -4.6442 -0.0143
10 1 6 0.0935 -1.1261
10 1 7 1.9681 -2.9052
10 1 8 -4.3946 0.3538
10 1 9 -9.7378 -1.6033
10 1 10 -6.6267 0.0107
10 1 11 -0.8571 -0.7500
10 1 12 0.4324 0.0648
10 1 13 -1.4699 -2.0885
10 1 14 3.7186 -0.3150
10 1 15 -1.1105 0.1916
10 1 16 -0.0217 -1.1056
10 1 17 -3.5108 -1.2707
10 1 18 2.1698 -0.3093
10 1 19 1.8690 1.1275
10 1 20 3.4646 0.2686
10 1 21 0.4879 -1.7067
10 2 0 8.0984 -24.9728
10 2 1 3.1426 -0.0279
10 2 2 1.3849 14.6978
10 2 3 3.8984 1.6520
10 2 4 8.9707 -4.6055
10 2 5 -4.0627 0.4314
10 2 6 -3.4293 6.4556
10 2 7 -1.4668 0.4794
10 2 8 -0.9383 -0.9515
10 2 9 4.8745 0.3505
10 2 10 -5.5401 3.8310
10 2 11 5.5608 0.6416
10 2 12 -3.7079 0.4500
10 2 13 -3.0867 -0.1478
10 2 14 -2.2051 2.0798
10 2 15 -1.2679 -0.9479
10 2 16 2.0152 -0.6727
10 2 17 0.5666 -0.0758
10 2 18 5.8850 2.2591
10 2 19 2.7668 0.1191
10 2 20 -1.7764 0.6076
10 2 21 -1.9084 0.7542
10 3 0 1.3563 -15.1351
10 3 1 -2.5538 0.7478
10 3 2 -1.1154 7.3910
10 3 3 3.4788 2.4755
10 3 4 -1.4326 -0.7463
10 3 5 -2.5048 -0.4229
10 3 6 -4.4192 2.4885
10 3 7 -0.4535 1.0641
10 3 8 -3.7826 1.8655
10 3 9 -2.0487 -1.7286
10 3 10 0.8928 1.0217
10 3 11 6.8265 2.0313
10 3 12 -6.3031 2.1587
10 3 13 -6.2952 -2.1236
10 3 14 -0.6077 0.0466
10 3 15 0.6712 1.5653
10 3 16 4.1108 1.1309
10 3 17 0.4116 -2.7878
10 3 18 3.5411 -0.6361
10 3 19 -0.6962 2.2474
10 3 20 1.5604 3.9465
10 3 21 3.6259 -2.0920
10 4 0 3.0906 -14.1280
10 4 1 6.0966 -0.5153
10 4 2 -6.3972 5.6543
10 4 3 -2.7789 0.5354
10 4 4 3.4320 -4.8435
10 4 5 -13.3677 2.5259
10 4 6 0.2014 2.3384
10 4 7 0.4143 -1.0780
10 4 8 5.6447 -3.2786
10 4 9 -4.1103 1.8658
10 4 10 1.1261 2.7215
10 4 11 1.7261 0.0236
10 4 12 1.3845 -2.3943
10 4 13 3.1561 -0.0015
10 4 14 7.8972 2.0418
10 4 15 -6.0488 -1.6450
10 4 16 -8.2216 -2.5377
10 4 17 -1.9203 0.5095
10 4 18 -1.0621 0.7486
10 4 19 0.5009 0.3621
10 4 20 -3.4781 -1.6564
10 5 0 -4.0081 18.6948
10 5 1 3.5621 -1.8872
10 5 2 -3.1348 -3.0066
10 5 3 1.4699 -0.5156
10 5 4 2.5216 0.1729
10 5 5 -2.5511 -1.8884
10 5 6 -0.0439 -0.5830
10 5 7 4.6280 2.6242
10 5 8 -2.2622 -0.5346
10 5 9 -2.9750 -2.4337
10 5 10 6.9936 -0.2783
10 5 11 0.8189 2.8776
10 5 12 -5.3002 -1.9912
10 5 13 1.4352 -2.4052
10 5 14 1.2248 0.1666
10 5 15 11.3453 2.2588
10 5 16 -1.5872 -1.7215
10 5 17 4.4851 -3.3520
10 5 18 2.5384 -0.2440
10 5 19 -5.5149 1.4459
10 5 20 0.8112 -0.0873
10 6 0 -0.4758 -30.9055
10 6 1 -3.3043 -5.5557
10 6 2 0.9726 6.5340
10 6 3 -7.3580 0.5964
10 6 4 3.3290 -5.8552
10 6 5 -2.0124 -1.2902
10 6 6 3.8800 4.5828
10 6 7 1.8936 0.1885
10 6 8 -0.6517 -2.3429
10 6 9 -5.2415 -1.5837
10 6 10 -0.1765 3.7274
10 6 11 -2.0476 0.8381
10 6 12 3.6039 -0.4948
10 6 13 -3.6796 -1.5227
10 6 14 -1.7984 1.4526
10 6 15 -10.1429 -0.5820
10 6 16 -5.8770 -0.2601
10 6 17 -2.5521 -0.6325
10 6 18 2.6549 0.1736
10 7 0 -10.5746 -14.2871
10 7 1 -4.4598 2.9646
10 7 2 9.0995 6.1029
10 7 3 -2.2491 -2.4703
10 7 4 3.0951 -1.8412
10 7 5 2.7836 -0.8903
10 7 6 -3.0028 2.3663
10 7 7 -1.5968 1.4516
10 7 8 -2.1178 2.4331
10 7 9 1.6715 0.3138
10 7 10 -0.0923 0.3752
10 7 11 8.4738 1.4303
10 7 12 -6.2301 1.5704
10 7 13 -1.7623 -0.2497
10 7 14 4.9528 0.9558
10 7 15 -2.4795 1.0790
10 7 16 1.8322 1.5755
10 7 17 -3.8402 -0.6139
10 7 18 -3.6003 -2.1431
10 8 0 -7.1860 -21.5104
10 8 1 3.7364 2.7381
10 8 2 -4.8870 4.3444
10 8 3 -3.4225 -2.0344
10 8 4 -6.6978 -4.1742
10 8 5 10.1796 2.9277
10 8 6 -4.6751 2.0878
10 8 7 3.6158 -1.4870
10 8 8 3.6913 -2.8605
10 8 9 -3.9533 1.9264
10 8 10 -0.8537 2.8757
10 8 11 1.2158 0.9885
10 8 12 -7.5349 -3.5380
10 8 13 2.7265 1.8199
10 8 14 0.7718 1.1945
10 8 15 1.3249 -0.8373
10 8 16 0.6174 -0.9415
10 9 0 0.2162 11.1126
10 9 1 0.0590 1.9548
10 9 2 1.3104 -3.1825
10 9 3 -4.5003 -2.1471
10 9 4 1.7204 -0.1052
10 9 5 -1.5287 -2.7689
10 9 6 3.9621 -1.5301
10 9 7 1.6693 2.9769
10 9 8 3.7295 0.1600
10 9 9 1.5899 -2.5253
10 9 10 1.8505 -0.5800
10 9 11 -7.1462 2.6998
10 9 12 -3.2270 0.6028
10 9 13 -0.7905 0.4624
10 9 14 7.6108 1.3029
10 9 15 -0.5472 -1.5458
10 10 0 -13.8776 -25.8133
10 10 1 7.4945 -5.1390
10 10 2 -0.1815 5.8781
10 10 3 9.5619 0.3125
10 10 4 1.4849 -1.2030
10 10 5 3.6710 -2.0274
10 10 6 2.4988 3.5680
10 10 7 2.9869 0.1537
10 10 8 -3.6244 -0.7937
10 10 9 -4.3748 0.0914
10 10 10 0.3524 2.9651
10 10 11 6.6679 1.0903
10 10 12 5.5764 -2.2816
10 11 0 -4.4618 -11.7226
10 11 1 3.8192 10.3801
10 11 2 1.5681 5.5041
10 11 3 -3.5372 0.3474
10 11 4 0.2719 -1.3671
10 11 5 -0.1352 1.1542
10 11 6 -1.9666 0.4957
10 11 7 -2.0015 3.3465
10 12 0 -2.7142 -9.7293
10 12 1 1.5622 -2.0204
10 12 2 -2.3735 1.0575
10 12 3 -1.7292 -5.3374
11 0 1 -10.4542 0.3026
11 0 3 4.6439 -0.3499
11 0 5 -11.7608 1.3391
11 0 7 -2.2763 0.3370
11 0 9 -6.0823 0.4027
11 0 11 7.4662 -0.0636
11 0 13 -0.2496 0.3522
11 0 15 -8.3587 0.4074
11 0 17 -10.9515 -0.6815
11 0 19 -1.9925 -0.0555
11 1 0 5.4817 -18.2623
11 1 1 -2.9404 -9.1818
11 1 2 -8.5626 9.0521
11 1 3 2.5037 3.0927
11 1 4 4.2817 -2.3047
11 1 5 1.6511 -0.8668
11 1 6 -0.3857 5.9570
11 1 7 3.6335 1.1533
11 1 8 6.1638 -0.5896
11 1 9 3.5061 -0.3657
11 1 10 4.8387 3.4930
11 1 11 4.4210 1.3384
11 1 12 1.3550 -0.2762
11 1 13 -1.5248 0.2832
11 1 14 2.0993 1.8004
11 1 15 0.7877 1.2049
11 1 16 3.1345 -0.5922
11 1 17 -0.0935 0.4789
11 1 18 1.6961 1.7111
11 1 19 -1.9152 -0.0015
11 1 20 -1.3514 -0.9690
11 2 0 -1.5148 4.1390
11 2 1 -5.1290 3.7656
11 2 2 -4.4347 -1.9012
11 2 3 -5.0104 -3.0374
11 2 4 0.5724 -0.9312
11 2 5 -5.1541 1.1794
11 2 6 1.8160 -0.3428
11 2 7 2.2843 -1.3453
11 2 8 -1.1318 0.4975
11 2 9 -1.9736 -1.0037
11 2 10 -6.3733 -0.0217
11 2 11 5.4871 -1.3173
11 2 12 -1.6986 0.7898
11 2 13 1.2755 -1.6504
11 2 14 4.4787 0.8502
11 2 15 3.1597 1.7634
11 2 16 -0.6170 0.6754
11 2 17 -3.2654 -1.8481
11 2 18 -3.6879 -0.2866
11 2 19 1.0691 0.8502
11 2 20 -2.8840 -0.2690
11 3 0 6.9230 -22.3114
11 3 1 -6.8027 -0.7310
11 3 2 -3.7705 7.4393
11 3 3 1.5130 -7.0592
11 3 4 2.5292 -6.0352
11 3 5 0.7648 1.3126
11 3 6 0.7467 4.3297
11 3 7 6.1929 -4.7792
11 3 8 4.7291 -2.5999
11 3 9 1.1680 0.4755
11 3 10 -1.7525 2.5061
11 3 11 8.5321 -1.9342
11 3 12 0.6331 -2.2286
11 3 13 7.6457 0.0031
11 3 14 6.0172 2.0542
11 3 15 -0.8916 -1.5818
11 3 16 -2.1863 -1.1748
11 3 17 -1.8258 0.2314
11 3 18 1.7071 1.4394
11 3 19 0.4474 -2.3765
11 3 20 -3.4660 -1.4415
11 4 0 -0.9432 -2.6475
11 4 1 -1.0917 -2.5457
11 4 2 -0.9179 0.6047
11 4 3 1.3141 3.3558
11 4 4 12.8821 -5.5659
11 4 5 -4.7778 -2.6075
11 4 6 8.5990 -0.2156
11 4 7 1.3515 4.1962
11 4 8 0.0128 -0.1664
11 4 9 -4.9715 -3.5183
11 4 10 6.7090 -1.1238
11 4 11 3.0617 4.2507
11 4 12 -4.7390 -0.2101
11 4 13 -10.0286 -3.0294
11 4 14 3.6516 0.2346
11 4 15 1.1345 3.7978
11 4 16 2.9608 0.1854
11 4 17 7.3309 -1.9529
11 4 18 -0.7498 -1.6735
11 4 19 3.4494 3.4657
11 4 20 -2.6259 0.6573
11 5 0 0.0625 -15.3104
11 5 1 0.5776 -11.0115
11 5 2 -2.6411 7.7708
11 5 3 -2.2676 3.0251
11 5 4 2.2211 -4.1455
11 5 5 -5.5038 -3.2547
11 5 6 -1.7016 1.8711
11 5 7 5.7061 0.4580
11 5 8 1.8590 -1.8986
11 5 9 -1.6451 -1.6096
11 5 10 4.1319 1.7207
11 5 11 0.6246 1.1240
11 5 12 -2.2277 -1.9644
11 5 13 3.7333 -0.8536
11 5 14 -5.8102 1.5212
11 5 15 1.8470 0.9168
11 5 16 -10.6323 -1.0852
11 5 17 3.8525 -0.1851
11 5 18 2.4927 1.6902
11 6 0 -1.2613 11.0787
11 6 1 -2.2090 4.4991
11 6 2 4.8991 -0.1222
11 6 3 -3.2635 -1.3618
11 6 4 0.9666 -2.1216
11 6 5 -3.1456 0.5816
11 6 6 0.4826 -0.2447
11 6 7 -2.2670 -0.7434
11 6 8 3.7275 0.1713
11 6 9 -1.5273 -1.4162
11 6 10 6.0975 -0.3623
11 6 11 -2.4748 1.0822
11 6 12 -1.2038 -0.4678
11 6 13 0.4821 -0.8111
11 6 14 10.0447 0.6191
11 6 15 3.5699 1.4706
11 6 16 5.2098 -0.2780
11 6 17 -1.9120 -0.8945
11 6 18 0.5839 0.3730
11 7 0 0.4421 -25.1347
11 7 1 -4.1769 0.0351
11 7 2 4.1504 9.5357
11 7 3 -13.5374 -3.0111
11 7 4 -0.2147 -5.3815
11 7 5 3.5183 2.6752
11 7 6 0.0533 3.7399
11 7 7 2.6692 -5.2298
11 7 8 0.8495 -2.3038
11 7 9 -0.2186 -0.2225
11 7 10 -4.9473 1.9844
11 7 11 7.2861 -1.7011
11 7 12 -2.5847 -1.5006
11 7 13 4.3402 0.1423
11 7 14 3.1745 1.4959
11 7 15 -4.2405 -1.9957
11 7 16 1.6665 -0.7943
11 7 17 3.5855 0.5313
11 8 0 -7.8975 -5.7562
11 8 1 5.5543 -0.8322
11 8 2 6.7743 3.4343
11 8 3 4.1241 0.2903
11 8 4 -2.9784 -3.0861
11 8 5 5.7627 -0.7833
11 8 6 -8.8483 -0.0665
11 8 7 0.7675 1.1903
11 8 8 -1.0350 0.1288
11 8 9 -0.6508 -2.7648
11 8 10 4.8742 -1.3965
11 8 11 5.8700 2.2684
11 8 12 -1.9486 -0.8405
11 8 13 4.2200 -0.0553
11 8 14 -1.1409 -1.3182
11 8 15 1.8919 1.4593
11 9 0 -0.1798 -10.9337
11 9 1 -0.9098 -3.3450
11 9 2 5.0722 4.7753
11 9 3 -1.5189 4.6418
11 9 4 2.5417 -1.4238
11 9 5 -3.9034 0.9155
11 9 6 0.5485 1.0698
11 9 7 -1.6420 0.9162
11 9 8 -1.7616 -1.0660
11 9 9 -3.9577 -0.2556
11 9 10 5.2784 2.2394
11 9 11 1.2123 0.6403
11 9 12 4.7974 -4.9018
11 9 13 -2.2540 -1.1320
11 10 0 -2.2904 10.1876
11 10 1 8.9011 5.7525
11 10 2 -8.8424 2.3037
11 10 3 -2.0801 -1.8253
11 10 4 -5.9394 1.0730
11 10 5 2.7120 0.6005
11 10 6 -5.4732 1.8191
11 10 7 0.5244 -0.9463
11 10 8 -0.5553 0.1203
11 10 9 3.2661 -3.3529
11 10 10 -1.1039 -1.1861
11 10 11 -5.2667 0.7236
11 11 0 -5.9249 -22.5327
11 11 1 0.1651 2.6525
11 11 2 1.3388 1.6404
11 11 3 -1.9949 -0.7762
11 11 4 -0.0881 -4.7077
11 11 5 2.2942 2.6206
11 11 6 -0.2895 -1.2339
12 0 0 11.5556 -8.1360
12 0 2 -5.1221 -1.6307
12 0 4 9.0544 -3.1869
12 0 6 5.5036 1.0679
12 0 8 5.9854 -2.7622
12 0 10 -0.7605 1.3412
12 0 12 -4.0595 -1.5941
12 0 14 5.8791 1.3147
12 0 16 9.8292 -1.3676
12 0 18 6.2127 0.9362
12 1 0 2.7467 16.7958
12 1 1 1.8613 2.1143
12 1 2 0.8612 -1.5449
12 1 3 3.8898 -3.9223
12 1 4 -0.2888 0.1093
12 1 5 -4.4507 -2.4606
12 1 6 -3.5124 -0.2557
12 1 7 0.6765 -1.4837
12 1 8 0.0712 -0.1475
12 1 9 -7.2521 -0.4336
12 1 10 -2.4801 -0.7667
12 1 11 0.4354 -0.9695
12 1 12 -3.2485 -1.0066
12 1 13 -3.8212 -0.5262
12 1 14 -1.6503 -0.8563
12 1 15 -1.1360 0.5290
12 1 16 -3.4947 -0.5476
12 1 17 -2.9818 -1.9814
12 1 18 -0.1245 0.1931
12 1 19 0.3964 0.5981
12 1 20 1.2919 0.1533
12 2 0 7.9262 -37.6988
12 2 1 1.6305 -0.0292
12 2 2 0.7199 8.2048
12 2 3 1.7001 0.7464
12 2 4 6.0365 -7.2000
12 2 5 -1.6410 -0.1281
12 2 6 0.1660 2.2405
12 2 7 1.0762 -0.6674
12 2 8 3.7571 -3.8309
12 2 9 2.8978 -0.4320
12 2 10 -0.3010 2.2989
12 2 11 7.3524 -0.8638
12 2 12 -1.7413 -1.3380
12 2 13 -3.0680 -1.0509
12 2 14 -1.6985 0.1591
12 2 15 -2.2051 -0.6228
12 2 16 -1.3525 -1.8769
12 2 17 2.2512 -0.0565
12 2 18 0.3696 0.6177
12 2 19 4.9127 0.2090
12 2 20 -6.1012 -0.8142
12 3 0 13.0332 -9.2068
12 3 1 -1.6421 1.0045
12 3 2 1.9673 6.9236
12 3 3 3.1568 0.0214
12 3 4 0.7419 0.3066
12 3 5 -3.4141 -1.9398
12 3 6 -2.5138 1.1434
12 3 7 0.4423 0.7716
12 3 8 -3.2418 1.2827
12 3 9 -4.0713 -2.2317
12 3 10 -4.7101 -0.9237
12 3 11 2.3743 2.1981
12 3 12 -12.9346 0.4055
12 3 13 -5.4730 -2.1152
12 3 14 -3.9768 -0.2501
12 3 15 -0.6489 1.5596
12 3 16 -1.2357 0.9987
12 3 17 -0.0574 -1.8201
12 3 18 -2.1486 -0.0511
12 3 19 1.1032 2.2116
12 3 20 -1.3660 3.0109
12 4 0 3.1694 -8.1012
12 4 1 -2.1792 1.2344
12 4 2 -2.5274 3.6680
12 4 3 -5.2087 2.1670
12 4 4 5.4453 -3.2672
12 4 5 -15.0499 3.1876
12 4 6 -1.2910 2.0519
12 4 7 -0.4435 -1.3705
12 4 8 0.0829 -2.9824
12 4 9 -5.4631 0.7208
12 4 10 -0.2518 1.2147
12 4 11 -0.9384 0.0873
12 4 12 2.9553 -3.1323
12 4 13 1.3000 0.8083
12 4 14 8.4516 1.3472
12 4 15 -4.3332 0.2996
12 4 16 -7.2337 -2.6297
12 4 17 0.6134 0.9516
12 4 19 1.8536 0.8279
12 5 0 4.2078 18.6018
12 5 1 -1.6678 -1.2448
12 5 2 3.0208 -0.2846
12 5 3 -0.8051 1.5175
12 5 4 6.3194 1.4036
12 5 5 -1.5710 -0.4441
12 5 6 1.1923 2.0144
12 5 7 0.0273 2.0664
12 5 8 -6.4503 0.1544
12 5 9 -7.6179 -2.9332
12 5 10 1.3319 1.3464
12 5 11 0.2634 3.2949
12 5 12 -5.2466 0.7092
12 5 13 3.4867 -2.8372
12 5 14 -2.3799 0.8743
12 5 15 8.1795 2.9374
12 5 16 -6.2060 -0.4942
12 5 17 2.5143 -2.3966
12 5 18 -3.3048 1.3341
12 6 0 1.5356 -25.3946
12 6 1 -0.7071 -4.0096
12 6 2 3.1758 11.6473
12 6 3 -0.8783 3.5822
12 6 4 1.2554 -5.1412
12 6 5 1.0334 0.9635
12 6 6 1.3362 3.8962
12 6 7 -2.9120 0.7689
12 6 8 1.9836 -1.0044
12 6 9 -5.9817 0.4802
12 6 10 4.0189 0.6896
12 6 11 0.3861 0.9652
12 6 12 -1.3136 -2.4004
12 6 13 -2.8382 0.4962
12 6 14 -3.6201 0.5191
12 6 15 -8.0781 0.6864
12 6 16 2.0133 -0.9645
12 6 17 -0.4297 0.1398
12 7 0 3.8606 -8.4991
12 7 1 0.4898 2.2688
12 7 2 15.7895 4.5966
12 7 3 -3.8232 -0.3788
12 7 4 3.3530 -3.3990
12 7 5 -0.6467 1.9979
12 7 6 -4.9042 1.6511
12 7 7 -0.9889 -1.3854
12 7 8 -1.0422 1.5885
12 7 9 1.7648 -0.9326
12 7 10 -3.4098 0.0272
12 7 11 0.6527 0.0992
12 7 12 -9.9537 -0.0101
12 7 13 -1.2302 -1.3578
12 7 14 0.4869 -1.0503
12 7 15 -1.2812 0.4248
12 7 16 -1.3936 1.5300
12 8 0 -5.2506 -3.2546
12 8 1 -0.5914 0.1582
12 8 2 -2.5099 7.8235
12 8 3 -7.2054 -0.4030
12 8 4 -3.1272 -3.0807
12 8 5 7.0104 2.4800
12 8 6 -1.8824 3.1446
12 8 7 5.3423 -1.3531
12 8 8 -1.8665 -0.2696
12 8 9 -2.8322 0.9032
12 8 10 -3.0805 2.4675
12 8 11 -3.6000 -0.9579
12 8 12 -3.8483 -1.5288
12 8 13 1.9231 1.5643
12 9 0 1.0805 8.0819
12 9 1 -2.8692 -2.0342
12 9 2 0.5892 -2.3930
12 9 3 -3.9980 1.6211
12 9 4 2.5611 -2.7032
12 9 5 -0.2656 0.4188
12 9 6 3.0045 -0.3240
12 9 7 0.3242 1.7428
12 9 8 1.2546 -0.1844
12 9 9 -1.4218 -3.3295
12 9 10 2.8362 -0.7471
12 9 11 -6.7345 3.2227
12 9 12 -0.8716 -0.0218
12 9 13 -0.3047 1.5625
12 10 0 -10.1526 -16.7345
12 10 1 0.8624 -5.4242
12 10 2 0.5141 4.2954
12 10 3 7.6952 0.5858
12 10 4 -2.8570 -5.0738
12 10 5 2.4933 -1.4982
12 10 6 -4.3433 0.7021
12 10 7 5.4542 -1.5836
12 10 8 -2.0992 1.6418
12 10 9 -1.8189 1.0498
12 11 0 2.8503 -10.1694
12 11 1 1.8900 3.4905
12 11 2 0.6698 0.0242
12 11 3 -1.5124 1.6403
12 11 4 0.8747 -3.9325
13 0 1 0.5952 6.1408
13 0 3 -0.7431 2.9579
13 0 5 -8.6395 0.0683
13 0 7 -0.8428 0.6844
13 0 9 -5.2432 0.7902
13 0 11 4.7180 0.1634
13 0 13 -3.3412 -0.1442
13 0 15 -6.2309 -0.3156
13 0 17 -6.8773 0.6242
13 1 0 0.2489 -20.6397
13 1 1 -0.9905 -4.1436
13 1 2 -6.0014 7.0057
13 1 3 0.1513 2.1945
13 1 4 2.9553 -2.2433
13 1 5 2.4447 -1.2813
13 1 6 -1.7903 3.8863
13 1 7 -1.1872 0.5122
13 1 8 3.3513 -3.8383
13 1 9 -4.0488 -0.1271
13 1 10 1.1265 1.8167
13 1 11 4.1481 0.5053
13 1 12 1.3313 -1.7054
13 1 13 3.8949 0.7494
13 1 14 2.2111 0.7470
13 1 15 5.8825 0.3044
13 1 16 -0.4780 -0.3519
13 1 17 3.9167 -0.2455
13 1 18 0.6294 2.1637
13 1 19 0.4635 -0.3743
13 2 0 0.8041 1.1362
13 2 1 -4.0103 11.6887
13 2 2 -1.6687 -0.9366
13 2 3 0.4217 -1.7221
13 2 4 1.4695 1.4437
13 2 5 -3.2195 4.1077
13 2 6 -1.1570 0.4609
13 2 7 -0.9794 1.4787
13 2 8 -1.4994 0.4098
13 2 9 -4.8282 1.5884
13 2 10 -6.6925 0.2487
13 2 11 0.7893 0.9720
13 2 12 -3.4372 0.9100
13 2 13 -0.6283 0.6396
13 2 14 4.1980 0.4666
13 2 15 2.9442 1.5753
13 2 16 0.1899 -0.0245
13 2 17 0.3306 0.0754
13 2 18 -2.8653 -0.0259
13 2 19 3.8417 1.5537
13 3 0 4.4117 -21.5027
13 3 1 -7.8549 5.3447
13 3 2 -4.4906 8.4337
13 3 3 -0.1884 -3.6644
13 3 4 1.2831 -3.3263
13 3 5 -2.8094 2.6004
13 3 6 -1.4401 4.3368
13 3 7 3.0947 -0.7370
13 3 8 0.1325 -2.1724
13 3 9 0.0902 2.0087
13 3 10 1.3110 2.3928
13 3 11 9.7082 0.5528
13 3 12 0.4364 -2.4731
13 3 13 7.9624 1.3233
13 3 14 2.5841 2.2911
13 3 15 3.5643 -0.0171
13 3 16 -1.0756 -1.2862
13 3 17 3.5189 0.2127
13 3 18 0.3663 0.3388
13 3 19 3.7861 -0.4033
13 4 0 5.2390 -5.6276
13 4 1 1.5592 -4.1668
13 4 2 0.7902 0.4437
13 4 3 -0.6421 4.3647
13 4 4 9.7897 -1.0785
13 4 5 -3.9334 -4.0081
13 4 6 6.3078 0.6039
13 4 7 4.9962 4.1731
13 4 8 -0.3621 0.7435
13 4 9 -0.6220 -2.3212
13 4 10 4.3159 0.2840
13 4 11 1.4458 4.2091
13 4 12 -2.8430 -0.1855
13 4 13 -7.8853 -2.3460
13 4 14 2.8437 -1.4914
13 4 15 0.1816 3.5029
13 4 16 0.7849 -0.3708
13 4 17 4.7186 -2.6634
13 5 0 4.5350 -12.6141
13 5 1 -7.2632 -3.2220
13 5 2 1.9573 4.9544
13 5 3 -4.0532 1.7779
13 5 4 2.4747 -4.4770
13 5 5 -6.8089 -3.0688
13 5 6 0.1877 2.3683
13 5 7 4.3928 1.3649
13 5 8 5.5343 -0.9973
13 5 9 3.6936 -0.8368
13 5 10 4.6234 1.0790
13 5 11 2.4143 -1.1318
13 5 12 -3.9583 -1.2284
13 5 13 4.6836 -1.7488
13 5 14 -4.0037 0.9693
13 5 15 3.4697 0.1676
13 5 16 -3.8526 -1.6140
13 5 17 6.4636 -0.9246
13 6 0 0.4312 2.2839
13 6 1 -0.7073 0.9499
13 6 2 0.9131 -1.4251
13 6 3 -1.0691 -4.6213
13 6 4 -2.4364 -1.2479
13 6 5 0.9909 1.3763
13 6 6 1.8716 -0.0807
13 6 7 0.3946 -1.7087
13 6 8 2.2946 -1.3837
13 6 9 -3.5669 0.0239
13 6 10 1.6573 -0.1273
13 6 11 -1.1661 2.2385
13 6 12 -2.3019 -1.1187
13 6 13 6.3739 -0.3902
13 6 14 5.5129 -1.0219
13 6 15 0.0134 0.5662
13 6 16 2.4502 -0.5405
13 7 0 -5.3447 -22.6625
13 7 1 -8.3095 3.2213
13 7 2 1.8650 7.6934
13 7 3 -9.8979 -0.6032
13 7 4 3.3083 -6.9568
13 7 5 4.1044 2.4836
13 7 6 1.6384 3.3413
13 7 7 3.1825 -1.0112
13 7 8 -2.0646 -1.2484
13 7 9 2.3649 1.8926
13 7 10 1.6908 1.9897
13 7 11 6.9643 -0.2933
13 7 12 3.3134 0.0570
13 7 13 4.5849 3.2644
13 7 15 -0.1081 -0.0129
13 8 0 -1.3491 -6.0314
13 8 1 2.5925 -9.1179
13 8 2 7.9254 0.9273
13 8 3 0.7953 0.8955
13 8 4 1.0153 -1.0293
13 8 5 -0.3886 -1.6349
13 8 6 -4.7416 0.3559
13 8 7 1.5796 0.0404
13 8 8 -1.5587 -0.3113
13 8 9 4.4877 -2.1627
13 8 10 4.6416 1.2778
13 8 11 0.7599 -0.9897
13 8 12 0.7919 0.8719
13 8 13 2.0351 -1.6320
13 9 0 2.3891 -0.4012
13 9 1 -0.0373 -3.1032
13 9 2 3.1084 2.2008
13 9 3 0.7703 2.0599
13 9 4 0.5240 -4.3905
13 9 5 -3.5632 -0.3052
13 9 6 -0.2174 -0.0775
13 9 7 -0.8431 -0.0527
13 9 8 -0.8074 -0.5354
13 9 9 -2.8346 0.7036
13 9 10 3.5830 2.0166
13 9 11 -1.0311 0.8614
13 10 0 6.5168 2.6070
13 10 1 2.6760 1.7259
13 10 2 -4.5835 -0.2246
13 10 3 -1.3154 1.9609
13 10 4 -1.4918 -1.8585
13 10 5 7.3319 4.2818
13 11 0 -1.8065 -6.4056
13 11 1 -3.1935 3.7603
14 0 0 -1.5330 -4.1023
14 0 2 -1.9838 -0.4415
14 0 4 6.3965 -2.3060
14 0 6 -1.1327 3.0125
14 0 8 2.9327 -1.8402
14 0 10 -0.7328 1.8706
14 0 12 -0.1259 -1.7180
14 0 14 4.9578 2.3261
14 0 16 3.6483 -1.3179
14 1 0 0.8667 5.5592
14 1 1 2.5988 3.6131
14 1 2 -1.5946 -2.1448
14 1 3 0.8216 -0.2582
14 1 4 -3.3156 0.4574
14 1 5 -0.4790 1.7643
14 1 6 0.3047 0.4411
14 1 7 1.8246 1.4756
14 1 8 8.7065 -0.0905
14 1 9 -2.7857 2.2396
14 1 10 1.7201 0.7567
14 1 11 0.8775 0.6085
14 1 12 -5.3311 -0.1444
14 1 13 -2.8455 0.8031
14 1 14 -6.5334 -0.0026
14 1 15 2.6262 0.3454
14 1 16 -7.5065 0.2453
14 1 17 1.8581 -1.6946
14 1 18 -2.9429 0.5653
14 2 0 5.6148 -37.9317
14 2 1 -0.6374 1.7037
14 2 2 -1.5495 9.0052
14 2 3 -0.2080 -1.3243
14 2 4 1.0384 -6.1009
14 2 5 -0.7530 -1.1611
14 2 6 0.0052 1.7927
14 2 7 2.3707 0.3137
14 2 8 2.9173 -3.3846
14 2 9 3.2117 0.3081
14 2 10 2.7123 0.7735
14 2 11 6.8596 0.0975
14 2 12 1.1342 -2.7296
14 2 13 -1.4616 -0.2670
14 2 14 -1.8092 1.1242
14 2 15 -2.2601 0.2031
14 2 16 -2.3989 -0.7939
14 2 17 -0.1868 0.3292
14 2 18 -1.7539 -0.1653
14 3 0 7.1312 -15.3025
14 3 1 -0.7287 0.4945
14 3 2 1.3325 -0.9372
14 3 3 3.1394 -0.7662
14 3 4 3.9627 -1.1164
14 3 5 -0.8597 -1.2714
14 3 6 0.6099 -2.2152
14 3 7 4.7847 0.8833
14 3 8 0.8439 -1.4590
14 3 9 -1.5975 -1.6699
14 3 10 -1.2748 -1.6488
14 3 11 -0.3044 1.9364
14 3 12 -6.5996 -0.8731
14 3 13 -0.2680 -0.9627
14 3 14 -3.6430 -1.7152
14 3 15 1.0827 0.4998
14 3 16 -4.4695 -0.0408
14 4 0 -2.4734 -1.1396
14 4 1 -1.5717 2.8909
14 4 2 -3.6219 2.4764
14 4 3 -0.4898 -2.6690
14 4 4 3.6290 -2.6700
14 4 5 -6.4846 -0.8553
14 4 6 -1.8374 3.2827
14 4 7 1.2941 -1.1245
14 4 8 -2.8454 -3.2715
14 4 9 -1.1641 -0.6614
14 4 10 -0.8954 1.9506
14 4 11 1.2555 -0.8189
14 4 12 1.5067 -1.6717
14 4 13 0.1040 1.0558
14 4 14 4.0402 0.9544
14 4 15 -1.8052 1.4085
14 4 16 -3.1982 -1.0578
14 4 17 1.0235 -0.4923
14 5 0 10.4023 -0.2812
14 5 1 -3.2300 -1.3461
14 5 2 5.0700 -3.1794
14 5 3 -1.4037 2.1985
14 5 4 5.2127 1.6406
14 5 5 -1.3302 -1.7861
14 5 6 3.4039 -0.6469
14 5 7 -1.6020 0.6948
14 5 8 -6.4920 -1.7885
14 5 9 -5.9903 -1.9610
14 5 10 -1.9998 0.8961
14 5 11 2.0268 1.7296
14 5 12 -4.3658 1.0285
14 5 13 3.8329 -2.4153
14 5 14 -2.5992 1.4354
14 5 15 1.9148 2.7542
14 5 16 -3.8394 -0.2049
14 6 0 -1.6933 -26.9818
14 6 1 -1.6223 2.0662
14 6 2 0.1180 10.9218
14 6 3 1.4507 0.2505
14 6 4 -0.7275 -4.0327
14 6 5 -0.4862 -1.2353
14 6 6 -2.5213 2.8053
14 6 7 -0.0948 1.1217
14 6 8 -0.5407 -1.6461
14 6 9 1.7759 -0.1169
14 6 10 3.1906 0.3414
14 6 11 1.3036 -0.0398
14 6 12 -5.2411 -1.1153
14 6 13 0.4092 1.4511
14 6 14 -5.2101 1.0610
14 6 15 -3.6851 0.4754
14 7 0 0.9136 -11.5708
14 7 1 4.2565 2.9791
14 7 2 6.2099 -0.0175
14 7 3 -3.0670 -0.6632
14 7 4 -0.6944 -1.2101
14 7 5 -2.7050 1.0906
14 7 6 -3.8284 -0.6341
14 7 7 1.5526 -0.5708
14 7 8 -4.1355 -3.0258
14 7 9 1.1733 0.3314
14 7 10 -3.7304 -0.8334
14 7 11 -6.7522 -1.5929
14 7 12 -4.0382 -2.0009
14 8 0 -1.4116 1.9116
14 8 1 -1.8341 3.8677
14 8 2 -0.8733 4.3132
14 8 3 -5.8464 -1.4180
14 8 4 1.4420 -3.9044
14 8 5 0.5235 -0.7835
14 8 6 2.3243 2.2002
14 8 7 1.5797 0.5247
14 8 8 -4.5081 -2.7554
14 8 9 -0.7446 0.0894
14 8 10 -1.6157 3.4447
14 8 11 -3.0920 -2.5899
14 8 12 2.0784 2.8110
14 9 0 -0.6215 3.4298
14 9 1 -2.1562 -3.5662
14 9 2 -3.3912 1.5090
14 9 3 -0.1613 3.2414
14 9 4 0.3002 1.2801
14 9 5 0.0637 0.2114
14 9 6 2.1748 1.0812
14 9 7 1.4253 2.3000
14 9 8 0.9560 -0.2848
14 9 9 0.7310 -1.7797
14 10 0 -1.8576 -8.1464
14 10 1 -3.8256 1.3550
14 10 2 2.1568 1.1295
14 10 3 3.6904 3.3288
14 10 5 -2.8612 0.3973
15 0 1 1.3277 -3.9122
15 0 3 -3.4116 -0.0206
15 0 5 0.6881 -1.6999
15 0 7 1.7435 -1.8115
15 0 9 -1.4511 -1.1523
15 0 11 1.7411 -0.3436
15 0 13 -3.8703 -0.0277
15 0 15 -2.0867 -0.9728
15 1 0 -1.6019 -15.8131
15 1 1 0.6034 0.5414
15 1 2 -0.6896 4.6888
15 1 3 5.5552 1.2285
15 1 4 1.5574 -7.7856
15 1 5 2.5257 -0.6500
15 1 6 -2.5140 0.4488
15 1 7 -8.0049 0.0673
15 1 8 1.2964 -4.3795
15 1 9 -9.3167 -0.7063
15 1 10 0.0202 0.5219
15 1 11 1.9732 -1.0829
15 1 12 1.8208 -2.3625
15 1 13 6.1502 -0.2527
15 1 14 -1.5048 0.6063
15 1 15 8.4638 -0.6847
15 1 16 -4.7492 -0.3698
15 2 0 2.1716 -1.8012
15 2 1 -1.0987 5.7745
15 2 2 0.1224 -0.4217
15 2 3 1.1335 -5.5736
15 2 4 1.4244 1.2918
15 2 5 -0.3010 2.3511
15 2 6 -1.4812 -0.5742
15 2 7 1.2283 -2.2414
15 2 8 -2.0572 -0.8439
15 2 9 -2.5731 0.2879
15 2 10 -4.8270 -0.6894
15 2 11 -2.4729 0.4891
15 2 12 -2.1834 -0.7377
15 2 13 0.6641 -0.0957
15 2 14 1.7773 0.0087
15 2 15 3.8764 -1.8958
15 2 16 1.6495 -0.8051
15 3 0 3.4154 -18.0029
15 3 1 -1.9600 7.0108
15 3 2 -1.4786 7.1962
15 3 3 -2.3369 0.2310
15 3 4 0.4024 -5.1162
15 3 5 -3.3233 2.3594
15 3 6 -3.0864 2.7338
15 3 7 -0.7781 1.4637
15 3 8 -2.2933 -2.6590
15 3 9 -3.5166 1.1458
15 3 10 2.4630 2.1397
15 3 11 0.3140 -0.0307
15 3 12 -0.5663 -2.8997
15 3 13 0.5210 1.2387
15 3 14 -2.2580 1.3024
15 3 15 3.8082 1.1234
15 3 16 -0.3096 -0.8263
15 3 17 2.6474 -0.0374
15 4 0 0.2823 -5.1386
15 4 1 3.9626 -7.0947
15 4 2 -2.7483 1.7030
15 4 3 1.6093 4.8353
15 4 4 0.0746 2.0777
15 4 5 -1.6873 -4.5967
15 4 6 -0.4789 0.5375
15 4 7 2.6396 2.5680
15 4 8 -2.0269 0.6364
15 4 9 0.8249 -2.6526
15 4 10 -1.2363 0.6513
15 4 11 1.4826 0.2296
15 4 12 -1.3040 0.3599
15 4 13 -1.5731 -2.4177
15 4 14 1.3762 -1.7469
15 4 15 0.5239 2.2216
15 4 16 -0.8781 -0.3680
15 5 0 1.8909 -9.3552
15 5 1 -7.2930 4.2752
15 5 2 -0.3932 4.4520
15 5 3 -3.0001 -0.1684
15 5 4 0.2648 -2.9538
15 5 5 -5.9895 -0.6815
15 5 6 0.1028 3.5920
15 5 7 2.1009 2.3082
15 5 8 2.4747 -1.5319
15 5 9 4.8799 -0.0245
15 5 10 0.8117 1.9233
15 5 11 1.7377 0.5323
15 5 12 -4.4261 0.4626
15 5 13 3.7035 -1.7676
15 5 14 -1.6263 0.3187
15 5 15 1.0397 -0.5920
15 6 0 2.6074 -5.3010
15 6 1 1.4966 6.9512
15 6 2 1.1244 -0.6781
15 6 3 -0.4188 -3.1221
15 6 4 0.1439 1.6248
15 6 5 1.1970 1.8826
15 6 6 0.7876 0.1614
15 6 7 3.7785 0.4911
15 6 8 -6.6754 -0.1044
15 6 9 -0.5228 0.8338
15 6 10 -2.0387 1.8732
15 6 11 1.0557 -0.7025
15 6 12 -1.3574 -1.0289
15 6 14 0.2616 -0.5634
15 7 0 -5.9984 -21.4032
15 7 1 3.2549 4.3129
15 7 2 -0.8980 6.4921
15 7 3 0.8873 -0.8538
15 7 4 1.8734 -2.7999
15 7 5 3.1924 -0.2634
15 7 6 -0.2209 2.7923
15 7 7 4.1146 2.5108
15 7 8 -3.8134 -3.5245
15 7 9 5.0311 2.6776
15 7 10 4.0953 2.5466
15 7 11 0.6392 -0.2760
15 7 12 5.4008 0.7750
15 8 0 -2.8948 -6.5612
15 8 1 0.3296 -1.9549
15 8 2 2.1765 0.3608
15 8 3 0.3739 5.2935
15 8 4 2.8223 3.0205
15 8 5 -3.8578 0.3073
15 8 6 1.1703 0.1397
15 8 7 0.0218 3.9953
15 8 8 -1.1980 -1.7114
15 8 9 3.4759 0.4558
15 8 10 1.2792 1.5586
15 9 1 3.5115 -2.0183
15 9 2 -0.6103 1.2331
15 9 3 4.0905 -3.2126
15 9 4 -0.1986 -1.4937
15 9 5 -1.4634 -1.8251
15 9 6 -0.6573 0.2815
16 0 0 -0.5011 6.9794
16 0 2 2.8783 5.7832
16 0 4 -0.2208 -0.9596
16 0 6 -3.7137 4.0032
16 0 8 0.9397 0.2796
16 0 10 -1.7046 2.7334
16 0 12 1.7872 -1.9232
16 0 14 2.4691 1.2864
16 1 0 0.9786 -1.3485
16 1 1 0.4799 0.3825
16 1 2 -4.5309 -0.6791
16 1 3 -2.6142 1.8093
16 1 4 -5.6278 -0.6236
16 1 5 0.7956 4.5850
16 1 6 3.3524 0.2001
16 1 7 -0.1963 0.3175
16 1 8 11.5223 -0.1147
16 1 9 -0.7003 1.3205
16 1 10 5.1075 1.3119
16 1 11 -1.4570 0.0825
16 1 12 -3.6258 0.6766
16 1 13 -0.3839 0.7106
16 1 14 -7.0235 1.1273
16 1 15 4.6208 -0.0821
16 2 0 -0.8502 -27.3014
16 2 1 -1.5914 0.5991
16 2 2 -0.4073 12.5828
16 2 3 -0.7143 0.1050
16 2 4 0.6093 -3.4445
16 2 5 -0.1207 0.4812
16 2 6 -2.0327 4.7910
16 2 7 1.8641 1.0313
16 2 8 -1.2593 0.0403
16 2 9 2.3084 0.4168
16 2 10 2.3102 2.2387
16 2 11 2.4826 1.2328
16 2 12 1.3850 -0.9580
16 2 13 -0.0801 0.5422
16 2 14 -4.3860 3.1222
16 2 15 -0.6584 0.3180
16 3 0 0.2814 -2.9210
16 3 1 -2.3392 0.2151
16 3 2 1.2109 -0.5225
16 3 3 -0.8929 1.3321
16 3 4 2.5819 -0.9743
16 3 5 0.2751 1.2241
16 3 6 0.7448 -0.7759
16 3 7 2.6272 1.0916
16 3 8 3.7069 -0.2054
16 3 9 -1.6862 -0.2751
16 3 10 3.8669 1.1957
16 3 11 -1.7944 0.9263
16 3 12 4.6963 0.9825
16 3 13 2.6002 1.0392
16 3 14 -0.5029 -1.1698
16 3 15 1.6203 0.2539
16 4 0 -2.8679 3.5652
16 4 1 2.4548 -0.2806
16 4 2 -3.5104 3.2070
16 4 3 3.3246 -1.2523
16 4 4 -0.5269 -2.7805
16 4 5 2.6903 0.4372
16 4 6 0.2375 4.0360
16 4 7 2.3134 0.0436
16 4 8 -0.2940 -2.0801
16 4 9 2.2451 0.1692
16 4 10 -1.2032 4.2942
16 4 11 1.6755 -0.1204
16 4 12 -1.3967 1.2392
16 4 13 -1.2267 0.1719
16 4 14 -0.6474 0.7228
16 5 0 4.6710 -3.3723
16 5 1 1.9089 -2.4339
16 5 2 2.8591 -0.0636
16 5 3 2.9269 1.3463
16 5 4 4.3179 1.5669
16 5 5 0.4862 -2.2029
16 5 6 2.7824 -0.6963
16 5 7 0.7016 1.0608
16 5 8 -5.1732 0.5464
16 5 9 -0.3156 -1.1904
16 5 10 -1.7260 -0.8659
16 5 11 2.6871 -1.3411
16 5 14 -2.2445 2.3727
16 6 0 -1.0060 -30.1944
16 6 1 -2.9231 2.0765
16 6 2 0.3266 4.6824
16 6 3 -2.0168 -0.3825
16 6 4 1.5707 -3.8445
16 6 5 -1.9843 -0.2784
16 6 6 -2.4607 0.4681
16 6 7 6.2405 0.2241
16 6 8 -3.4134 -3.9729
16 6 9 7.5592 -2.7618
16 6 10 0.1143 2.3483
16 6 11 -0.8710 -0.8706
16 6 12 -4.4097 0.4595
16 7 0 -8.8531 -3.2263
16 7 1 2.7184 3.8673
16 7 2 -5.2600 1.1271
16 7 3 0.2887 -2.2090
16 7 4 -3.3571 1.8574
16 7 5 0.9569 -0.8124
16 7 6 -2.4977 0.2669
16 7 7 3.3861 1.9166
16 7 8 -5.9553 -3.1092
16 7 9 1.0995 1.0137
16 7 10 -0.8440 0.5883
16 7 11 -5.7102 -3.0005
16 8 0 1.1763 -7.1792
16 8 1 4.9395 0.2769
16 8 2 -1.2641 -2.9643
16 8 3 -0.9353 -3.6099
16 8 4 1.0081 -5.9726
16 8 5 -3.0285 -2.4207
16 8 6 3.1099 -1.8576
16 9 1 -0.8127 -1.1957
16 9 2 -5.4587 2.9977
16 9 3 1.7035 0.5325
17 0 1 -1.6468 -5.8205
17 0 3 -1.2173 -1.0488
17 0 5 4.6316 -0.5720
17 0 7 -0.6227 -1.3874
17 0 9 1.0911 -0.6774
17 0 11 0.1882 0.0330
17 0 13 -1.9559 1.6712
17 1 0 -1.5512 -11.2067
17 1 1 0.7284 0.3824
17 1 2 2.6811 6.4368
17 1 3 5.7352 -0.0865
17 1 4 0.8599 -5.4315
17 1 5 0.8966 0.6471
17 1 6 0.5059 2.3056
17 1 7 -7.3600 0.1069
17 1 8 1.1819 -1.3543
17 1 9 -9.3773 0.1010
17 1 10 0.7358 1.9274
17 1 11 -1.4844 -1.0134
17 1 12 2.2430 -1.0257
17 1 13 4.3473 -0.7865
17 1 14 -2.8403 0.8159
17 2 0 1.9867 0.7402
17 2 1 2.3774 3.8847
17 2 2 0.8533 -0.1820
17 2 3 -1.7153 -5.3750
17 2 4 0.3513 -1.2251
17 2 5 1.0020 1.2029
17 2 6 -1.3159 -0.2778
17 2 7 2.5310 -3.4201
17 2 8 -1.3483 -0.0835
17 2 9 1.2327 -0.1354
17 2 10 -1.3903 -0.0255
17 2 11 -2.8197 -1.8113
17 2 12 -0.0495 -1.3468
17 2 13 2.4111 -0.6946
17 2 14 -1.0709 0.1236
17 3 0 2.0163 -15.0823
17 3 1 -0.4035 -4.9295
17 3 2 3.2714 5.3889
17 3 3 -1.6435 0.6053
17 3 4 1.4101 -5.5694
17 3 5 0.9649 -0.5207
17 3 6 -0.6396 2.3662
17 3 7 -2.4058 -0.5096
17 3 8 1.2332 -3.2430
17 3 9 -3.8414 -1.6689
17 3 10 2.6642 1.6011
17 3 11 -6.6335 -2.9131
17 3 12 -0.1030 -2.3136
17 3 13 -4.8938 -1.0654
17 3 14 -2.7449 -0.4651
17 4 0 -2.2797 3.0856
17 4 1 2.0421 -7.4539
17 4 2 -2.0569 0.9101
17 4 3 2.1859 3.3343
17 4 4 -3.6254 -1.6706
17 4 5 0.5108 -3.3440
17 4 6 -2.9878 -1.0106
17 4 7 -1.3962 1.1805
17 4 8 -1.3290 -0.8528
17 4 9 0.0449 -2.2463
17 4 10 -2.5843 -1.5544
17 4 11 1.5872 -2.3246
17 4 13 1.8100 -2.5847
17 5 0 -3.5764 -6.6467
17 5 1 -0.1590 -0.5509
17 5 2 -4.9775 4.0492
17 5 3 -2.9003 -2.2749
17 5 4 -2.4973 -2.5021
17 5 5 -4.2326 -0.8693
17 5 6 -1.1895 1.9124
17 5 7 2.0836 -2.0061
17 5 8 -1.9345 -2.8091
17 5 9 3.5187 -1.1111
17 5 10 -1.3802 2.9911
17 5 11 0.3685 2.5573
17 6 0 3.1585 0.1901
17 6 1 -0.7393 8.1968
17 6 2 4.0348 -0.7812
17 6 3 -2.2505 -0.9838
17 6 4 3.4936 -1.2818
17 6 5 -1.3318 1.5232
17 6 6 -2.3402 -0.7106
17 6 7 3.7218 3.0896
17 6 8 -10.0771 1.9586
17 6 9 1.9548 1.1364
17 6 10 -1.1960 3.0258
17 6 11 1.1992 -2.8143
17 7 0 -0.0655 -16.3467
17 7 1 7.8566 -4.2395
17 7 2 -0.4611 3.7657
17 7 3 4.1274 -2.0387
17 7 4 -2.1621 -1.9893
17 7 5 1.9987 -2.9015
17 7 6 -3.5412 0.6086
17 7 7 3.8127 0.9111
17 7 8 -2.9068 -4.2192
17 8 0 -8.8063 2.6325
17 8 1 -0.5809 3.5653
17 8 2 -4.7572 3.6040
17 8 3 1.7009 6.5438
17 8 4 2.0303 3.8470
18 0 0 -0.3182 -1.2828
18 0 2 1.3142 1.3720
18 0 4 -4.3482 -2.5763
18 0 6 -0.7975 0.6764
18 0 8 0.6570 -2.0489
18 0 10 -1.3487 0.3562
18 0 12 0.6927 -2.7041
18 1 0 1.0868 -3.4647
18 1 1 -0.0232 -0.0289
18 1 2 -2.8184 2.3587
18 1 3 -2.1454 -3.7237
18 1 4 -2.0507 -0.4405
18 1 5 0.1574 -0.7027
18 1 6 2.5034 0.1076
18 1 7 -2.7414 -2.6498
18 1 8 7.0770 -1.3807
18 1 9 0.4621 -0.4688
18 1 10 5.6385 0.2627
18 1 11 -2.7822 -1.4713
18 1 12 -0.9153 0.2391
18 1 13 0.6504 0.2989
18 2 0 -5.1657 -26.5024
18 2 1 -1.0508 -1.0972
18 2 2 0.8518 6.7048
18 2 3 -0.1947 1.3895
18 2 4 0.1696 -3.8727
18 2 5 1.2862 -0.3247
18 2 6 -1.5579 2.5979
18 2 7 1.2548 -0.9638
18 2 8 -2.7488 -2.3913
18 2 9 0.8928 -1.0206
18 2 10 0.0365 2.2942
18 2 11 -0.3108 0.2164
18 2 12 1.5129 0.2811
18 2 13 1.0284 0.5769
18 3 0 0.4773 11.8789
18 3 1 -1.7891 1.3727
18 3 2 1.8416 2.2553
18 3 3 -4.0121 0.1716
18 3 4 -1.9070 -0.2075
18 3 5 0.1695 -0.0814
18 3 6 -0.7755 1.6709
18 3 7 -2.2495 0.2365
18 3 8 3.3649 0.5495
18 3 9 -2.1959 1.3932
18 3 10 3.5893 2.9914
18 3 11 -1.6843 -0.2241
18 3 12 7.8192 3.3710
18 4 0 -1.5014 0.7913
18 4 1 0.5924 -3.7236
18 4 2 -0.6733 3.8977
18 4 3 0.9971 1.2837
18 4 4 -1.6141 -1.9068
18 4 5 3.4266 0.9643
18 4 6 0.3846 2.9923
18 4 7 0.2547 1.0477
18 4 8 1.4120 -2.1938
18 4 9 1.9478 2.7514
18 4 10 -0.8775 2.4748
18 4 11 -0.1462 1.0990
18 5 0 -3.9518 1.6888
18 5 1 5.0548 -1.6639
18 5 2 -0.2327 1.1803
18 5 3 4.1523 1.2661
18 5 4 4.2301 1.7661
18 5 5 1.1359 -0.4751
18 5 6 0.8934 2.7458
18 5 7 2.2999 2.7478
18 5 8 -3.1524 3.1569
18 5 9 2.1027 -0.1487
18 5 10 -0.8192 -1.5134
18 6 0 1.8369 -17.9728
18 6 1 -3.7491 -0.5089
18 6 2 1.5884 3.7846
18 6 3 -5.1930 2.6478
18 6 4 3.0920 -2.0765
18 6 5 -0.9645 1.5064
18 6 6 -0.6571 0.0664
18 6 7 6.7491 -0.3298
18 6 8 -3.0962 -4.7873
18 7 0 -5.3479 7.8541
18 7 1 -2.2516 2.4644
18 7 2 -3.3634 3.9562
18 7 3 1.1392 1.2994
18 7 4 -1.7169 2.8450
18 7 5 3.9242 1.7354
19 0 1 1.4819 5.7686
19 0 3 3.0547 2.7471
19 0 5 3.3025 3.2138
19 0 7 -1.7237 2.0046
19 0 9 1.2138 2.4427
19 0 11 -0.1667 1.3769
19 1 0 -1.2628 -13.3588
19 1 1 -0.2307 -0.0148
19 1 2 1.6846 7.7059
19 1 3 1.4222 -2.7340
19 1 4 -0.8315 2.1632
19 1 5 -1.1216 -0.2351
19 1 6 2.5796 5.0822
19 1 7 -2.3031 0.9694
19 1 8 0.6326 0.0974
19 1 9 -4.9686 1.7541
19 1 10 0.8168 2.3453
19 1 11 -1.8993 -0.2810
19 2 0 0.2993 0.0528
19 2 1 2.3872 9.5396
19 2 2 -0.0798 -0.3534
19 2 3 -1.2582 -0.9664
19 2 4 -1.2978 -0.0078
19 2 5 2.1391 3.1601
19 2 6 -2.0614 2.8480
19 2 7 0.5420 1.6587
19 2 8 -0.7517 1.2581
19 2 9 3.3405 2.3104
19 2 10 -0.1408 1.5750
19 2 11 -2.1818 -2.4909
19 3 0 -1.3512 -14.3743
19 3 1 -1.6667 -6.6331
19 3 2 3.8126 4.6481
19 3 3 -0.0029 1.7953
19 3 4 1.2094 -1.7866
19 3 5 3.8637 -1.7718
19 3 6 1.1702 3.5153
19 3 7 -1.8852 0.2498
19 3 8 3.0392 -2.9459
19 3 9 -1.1618 -0.5657
19 3 10 0.8646 0.6976
19 4 0 0.7182 4.9427
19 4 1 0.8214 -3.9435
19 4 2 1.1569 1.1377
19 4 3 -0.5956 0.2716
19 4 4 -1.3640 0.9965
19 4 5 1.4883 -2.2485
19 4 6 -0.8069 0.5628
19 4 7 -0.8646 1.0711
19 4 8 0.3199 -2.8763
19 4 9 0.1413 0.7781
19 5 0 -4.7126 -5.3992
19 5 1 4.4452 2.9287
19 5 2 -3.9791 2.1945
19 5 3 -1.8770 -0.2707
19 5 4 -1.2156 -2.2040
19 5 5 -2.7809 -2.9752
19 5 6 -1.1290 -0.0318
19 5 7 1.1338 -3.4048
19 6 0 2.6299 3.2034
19 6 1 -1.5030 -0.2257
19 6 2 4.5836 -2.6571
19 6 3 -1.9227 -1.6688
19 6 5 -2.0714 -0.5791
20 0 0 -3.4952 -10.9008
20 0 2 -3.2546 -4.6587
20 0 4 -4.2225 -5.7132
20 0 6 0.6110 -2.9600
20 1 0 1.6828 -6.6257
20 1 1 -0.5697 1.5754
20 1 2 -0.4501 3.8663
20 1 3 0.0548 -6.6387
20 1 4 1.0821 1.9734
20 1 5 -0.1882 -3.4438
20 1 6 0.6363 0.4051
20 1 7 -2.8162 -2.7519
20 1 8 1.1177 -2.9695
20 1 9 0.7710 -0.6392
20 2 0 -2.4792 -22.8930
20 2 1 0.7489 1.3779
20 2 2 1.1806 1.3456
20 2 3 1.2800 0.3887
20 2 4 -2.5797 -4.9161
20 2 5 2.5080 -3.1387
20 2 6 -0.4149 -1.9323
20 2 8 -1.9043 -5.2029
20 2 9 0.3096 -1.4440
20 3 0 1.0644 5.3011
20 3 1 0.2050 1.9360
20 3 2 1.4863 -1.7988
20 3 3 -3.1474 -1.9317
20 3 4 -2.7174 -0.5910
20 3 5 0.5173 -1.7006
20 3 6 -1.6382 0.4251
20 3 7 -3.0837 -0.7866
20 3 8 1.0186 -2.1295
20 4 0 -2.1217 -3.1157
20 4 1 -1.7006 -1.7268
20 4 2 1.3641 3.6676
20 4 3 -0.6785 -3.0920
20 4 4 0.2353 0.3377
20 4 6 -1.2407 1.9947
20 5 0 -5.1318 -6.5867
20 5 1 3.4449 -0.1970
20 5 2 -2.4616 -5.2573
20 5 3 0.8196 0.9542
21 0 1 3.4970 6.9079
21 0 3 4.0383 4.6625
21 0 5 0.6136 6.1281
21 1 0 1.3722 -9.9029
21 1 1 -1.3198 1.3300
21 1 2 1.1560 6.2619
21 1 3 -0.0203 -4.3884
21 1 4 -0.8420 2.0903
21 1 5 -1.3177 -1.5686
21 1 6 2.7064 3.4161
21 2 0 -1.0545 -4.1170
21 2 1 -0.7484 5.1523
21 2 2 -1.7092 -1.2580
21 2 3 0.6117 0.6565
21 2 4 -1.8739 1.1158
21 2 5 3.0143 4.5066
21 3 2 2.1003 3.7994
21 3 3 -0.2015 3.1831
0 0 0 0.0 0.0
;
_shelx_fab_checksum                4503
_olex2_submission_special_instructions  'No special instructions were received'
_oxdiff_exptl_absorpt_empirical_details
;
Empirical correction (ABSPACK) includes:
- Absorption correction using spherical harmonics
- Frame scaling
;
# start Validation Reply Form
_vrf_PLAT971_nd-u6
;
PROBLEM: Check Calcd Resid. Dens. 0.68Ang From U1 3.55 eA-3
RESPONSE: high residual q-peaks common near heavy atoms
;
_vrf_PLAT972_nd-u6
;
PROBLEM: Check Calcd Resid. Dens. 0.71Ang From U2 -5.23 eA-3
RESPONSE: high residual q-peaks common near heavy atoms
;
