data_Eu-U6
_audit_creation_date               2022-12-02
_audit_creation_method
;
Olex2 1.3
(compiled 2020.11.12 svn.r5f609507 for OlexSys, GUI svn.r6408)
;
_shelx_SHELXL_version_number       '2018/3'
_audit_contact_author_address      ?
_audit_contact_author_email        ?
_audit_contact_author_name         ''
_audit_contact_author_phone        ?
_publ_contact_author_id_orcid      ?
_publ_section_references
;
Dolomanov, O.V., Bourhis, L.J., Gildea, R.J, Howard, J.A.K. & Puschmann, H.
 (2009), J. Appl. Cryst. 42, 339-341.

Sheldrick, G.M. (2015). Acta Cryst. C71, 3-8.
;
_chemical_name_common              ?
_chemical_name_systematic          ?
_chemical_formula_moiety           'Eu4 O71 S12 U6, 2(O)'
_chemical_formula_sum              'Eu4 O73 S12 U6'
_chemical_formula_weight           3588.74
_chemical_melting_point            ?
loop_
  _atom_type_symbol
  _atom_type_description
  _atom_type_scat_dispersion_real
  _atom_type_scat_dispersion_imag
  _atom_type_scat_source
 'Eu' 'Eu' -8.9294 11.1857
 'International Tables Vol C Tables 4.2.6.8 and 6.1.1.4'
 'O' 'O' 0.0492 0.0322 'International Tables Vol C Tables 4.2.6.8 and 6.1.1.4'
 'S' 'S' 0.3331 0.5567 'International Tables Vol C Tables 4.2.6.8 and 6.1.1.4'
 'U' 'U' -4.3638 13.4090 'International Tables Vol C Tables 4.2.6.8 and 6.1.1.4'

_shelx_space_group_comment
;
The symmetry employed for this shelxl refinement is uniquely defined
by the following loop, which should always be used as a source of
symmetry information in preference to the above space-group names.
They are only intended as comments.
;
_space_group_crystal_system        'monoclinic'
_space_group_IT_number             14
_space_group_name_H-M_alt          'P 1 21/n 1'
_space_group_name_Hall             '-P 2yn'
loop_
  _space_group_symop_operation_xyz
 'x, y, z'
 '-x+1/2, y+1/2, -z+1/2'
 '-x, -y, -z'
 'x-1/2, -y-1/2, z-1/2'

# end Validation Reply Form
_cell_length_a                     10.8708(2)
_cell_length_b                     17.0569(5)
_cell_length_c                     19.7963(9)
_cell_angle_alpha                  90
_cell_angle_beta                   90
_cell_angle_gamma                  90
_cell_volume                       3670.7(2)
_cell_formula_units_Z              2
_cell_measurement_reflns_used      4789
_cell_measurement_temperature      173(2)
_cell_measurement_theta_max        74.1740
_cell_measurement_theta_min        3.4140
_shelx_estimated_absorpt_T_max     ?
_shelx_estimated_absorpt_T_min     ?
_exptl_absorpt_coefficient_mu      65.047
_exptl_absorpt_correction_T_max    0.284
_exptl_absorpt_correction_T_min    0.062
_exptl_absorpt_correction_type     analytical
_exptl_absorpt_process_details
;
CrysAlisPro 1.171.40.53 (Rigaku Oxford Diffraction, 2019)
Analytical numeric absorption correction using a multifaceted crystal
			model based on expressions derived by R.C. Clark & J.S. Reid.
(Clark, R. C. & Reid, J. S. (1995). Acta Cryst. A51, 887-897)
Spherical absorption correction
 using equivalent radius and absorption coefficient.
Empirical absorption correction using spherical harmonics,
 implemented in SCALE3 ABSPACK scaling algorithm.
;
_exptl_absorpt_special_details     ?
_exptl_crystal_colour              'clear green'
_exptl_crystal_colour_lustre       clear
_exptl_crystal_colour_modifier     .
_exptl_crystal_colour_primary      green
_exptl_crystal_density_diffrn      3.247
_exptl_crystal_density_meas        ?
_exptl_crystal_density_method      ?
_exptl_crystal_description         needle
_exptl_crystal_F_000               3160
loop_
  _exptl_crystal_face_index_h
  _exptl_crystal_face_index_k
  _exptl_crystal_face_index_l
  _exptl_crystal_face_perp_dist
 0 -2 -1 0.0121
 0 -1 -2 0.0177
 0 1 2 0.0147
 0 1 0 0.0111
 0 -1 0 0.0111
 1 1 -1 0.0148
 -2 2 1 0.0126
 -1 1 -2 0.0165
 1 -1 2 0.0225

_exptl_crystal_size_max            0.048
_exptl_crystal_size_mid            0.043
_exptl_crystal_size_min            0.022
_exptl_transmission_factor_max     ?
_exptl_transmission_factor_min     ?
_diffrn_reflns_av_R_equivalents    0.0767
_diffrn_reflns_av_unetI/netI       0.0636
_diffrn_reflns_Laue_measured_fraction_full  1.000
_diffrn_reflns_Laue_measured_fraction_max  1.000
_diffrn_reflns_limit_h_max         12
_diffrn_reflns_limit_h_min         -12
_diffrn_reflns_limit_k_max         20
_diffrn_reflns_limit_k_min         -7
_diffrn_reflns_limit_l_max         23
_diffrn_reflns_limit_l_min         -23
_diffrn_reflns_number              22582
_diffrn_reflns_point_group_measured_fraction_full  1.000
_diffrn_reflns_point_group_measured_fraction_max  1.000
_diffrn_reflns_theta_full          67.078
_diffrn_reflns_theta_max           67.078
_diffrn_reflns_theta_min           3.420
_diffrn_ambient_temperature        173(2)
_diffrn_detector_area_resol_mean   10.0000
_diffrn_detector_type              HyPix
_diffrn_measured_fraction_theta_full  1.000
_diffrn_measured_fraction_theta_max  1.000
_diffrn_measurement_details
;
List of Runs (angles in degrees, time in seconds):

  # Type    Start    End  Width  t~exp~   \w     \q     \k     \f   Frames
--------------------------------------------------------------------------
  1  \w    -38.00  36.00   1.00    0.99    --  -43.05  26.00 -36.00   74
  2  \w   -121.00 -17.00   1.00    0.99    --  -43.05 -26.00 160.00  104
  3  \w     64.00 111.00   1.00    0.99    --   43.05  26.00 -36.00   47
  4  \w     16.00  41.00   1.00    0.99    --   43.05 -26.00 160.00   25
  5  \w   -107.00 -64.00   1.00    0.99    --  -90.25 -26.00 160.00   43
  6  \w    -82.00 -55.00   1.00    0.99    --  -90.25  26.00 -36.00   27
  7  \w     30.00  87.00   1.00    0.99    --  108.01 -26.00 160.00   57
  8  \w    102.00 178.00   1.00    0.99    --  108.01  26.00 -36.00   76
  9  \w   -116.00 -90.00   1.00    0.99    --  -43.05-125.00 -60.00   26
 10  \w     36.00  87.00   1.00    0.99    --   43.05-125.00  30.00   51
 11  \w    -84.00 -17.00   1.00    0.99    --  -90.25 125.00 -30.00   67
 12  \w     35.00 117.00   1.00    0.99    --  108.01 -61.00-120.00   82
 13  \w     49.00 110.00   1.00    0.99    --  108.01-125.00  60.00   61
 14  \w     32.00 125.00   1.00    0.99    --  108.01 -45.00-120.00   93
 15  \w    117.00 172.00   1.00    0.99    --  108.01 125.00-180.00   55
 16  \w     35.00  93.00   1.00    0.99    --  108.01 -94.00-150.00   58
 17  \w     41.00 100.00   1.00    0.99    --  108.01 -94.00-180.00   59
 18  \w     35.00 108.00   1.00    0.99    --  108.01 -94.00 120.00   73
;
_diffrn_measurement_device         'four-circle diffractometer'
_diffrn_measurement_device_type    'XtaLAB Synergy, Dualflex, HyPix'
_diffrn_measurement_method         '\w scans'
_diffrn_radiation_type             CuK\a
_diffrn_radiation_wavelength       1.54184
_diffrn_source                     ?
_reflns_Friedel_coverage           0.000
_reflns_Friedel_fraction_full      .
_reflns_Friedel_fraction_max       .
_reflns_number_gt                  4886
_reflns_number_total               6539
_reflns_special_details
;
 Reflections were merged by SHELXL according to the crystal
 class for the calculation of statistics and refinement.
 
 Structure factors included contributions from the .fab file.
 
 _reflns_Friedel_fraction is defined as the number of unique
 Friedel pairs measured divided by the number that would be
 possible theoretically, ignoring centric projections and
 systematic absences.
;
_reflns_threshold_expression       'I > 2\s(I)'
_computing_cell_refinement         'CrysAlisPro 1.171.40.53 (Rigaku OD, 2019)'
_computing_data_collection         'CrysAlisPro 1.171.40.53 (Rigaku OD, 2019)'
_computing_data_reduction          'CrysAlisPro 1.171.40.53 (Rigaku OD, 2019)'
_computing_molecular_graphics      'Olex2 1.3 (Dolomanov et al., 2009)'
_computing_publication_material    'Olex2 1.3 (Dolomanov et al., 2009)'
_computing_structure_refinement    'SHELXL 2018/3 (Sheldrick, 2015)'
_computing_structure_solution      'ShelXT (Sheldrick, 2015)'
_refine_diff_density_max           3.886
_refine_diff_density_min           -2.703
_refine_diff_density_rms           0.392
_refine_ls_extinction_coef         .
_refine_ls_extinction_method       none
_refine_ls_goodness_of_fit_ref     1.035
_refine_ls_hydrogen_treatment      undef
_refine_ls_matrix_type             full
_refine_ls_number_parameters       429
_refine_ls_number_reflns           6539
_refine_ls_number_restraints       0
_refine_ls_R_factor_all            0.1079
_refine_ls_R_factor_gt             0.0916
_refine_ls_restrained_S_all        1.035
_refine_ls_shift/su_max            0.001
_refine_ls_shift/su_mean           0.000
_refine_ls_structure_factor_coef   Fsqd
_refine_ls_weighting_details      
 'w=1/[\s^2^(Fo^2^)+(0.1397P)^2^+59.5781P] where P=(Fo^2^+2Fc^2^)/3'
_refine_ls_weighting_scheme        calc
_refine_ls_wR_factor_gt            0.2376
_refine_ls_wR_factor_ref           0.2549
_refine_special_details            ?
_olex2_refinement_description
;
1. Uiso/Uaniso restraints and constraints
Uanis(O35) = Uanis(O22) = Uanis(O24) = Uanis(O9) = Uanis(O37) = Uanis(O27) =
Uanis(O19) = Uanis(O40)
Uanis(O21) = Uanis(O41) = Uanis(S2) = Uanis(O44)
Uanis(O31) = Uanis(O5)
Uanis(O2B) = Uanis(O2A)
2. Others
 Sof(O40)=1-FVAR(1)
 Sof(O19)=FVAR(1)
 Fixed Sof: O22(0.5) O24(0.5) O27(0.5) O15(0.5) O31(0.5) O2B(0.5) O33(0.5)
 O35(0.5) O9(0.5) O37(0.5) O39(0.5) O5(0.5) O21(0.5) O44(0.5) O2A(0.5)
;
_atom_sites_solution_hydrogens     .
_atom_sites_solution_primary       ?
_atom_sites_solution_secondary     ?
loop_
  _atom_site_label
  _atom_site_type_symbol
  _atom_site_fract_x
  _atom_site_fract_y
  _atom_site_fract_z
  _atom_site_U_iso_or_equiv
  _atom_site_adp_type
  _atom_site_occupancy
  _atom_site_site_symmetry_order
  _atom_site_calc_flag
  _atom_site_refinement_flags_posn
  _atom_site_refinement_flags_adp
  _atom_site_refinement_flags_occupancy
  _atom_site_disorder_assembly
  _atom_site_disorder_group
 U1 U 1.23871(7) 0.46913(5) 0.50002(6) 0.0722(3) Uani 1 1 d . . . . .
 U3 U 1.04909(7) 0.65896(5) 0.50001(6) 0.0755(3) Uani 1 1 d . . . . .
 U2 U 0.99997(8) 0.50004(6) 0.36108(6) 0.0791(3) Uani 1 1 d . . . . .
 Eu1 Eu 0.57381(16) 0.33780(15) 0.26236(14) 0.1077(8) Uani 1 1 d . . . . .
 Eu2 Eu 0.42643(16) 0.66224(15) 0.26269(14) 0.1093(9) Uani 1 1 d . . . . .
 S1 S 0.3262(7) 0.4648(6) 0.3223(5) 0.102(3) Uani 1 1 d . . . . .
 S4 S 0.6726(8) 0.5346(5) 0.3236(5) 0.099(3) Uani 1 1 d . . . . .
 S6 S 0.8873(6) 0.3042(6) 0.3255(6) 0.104(3) Uani 1 1 d . . . . .
 S3 S 0.1123(6) 0.6969(6) 0.3253(5) 0.103(3) Uani 1 1 d . . . . .
 S2 S 1.2647(7) 0.2581(5) 0.4998(7) 0.124(4) Uani 1 1 d . . . . .
 S5 S 1.2657(7) 0.7887(5) 0.4992(8) 0.128(4) Uani 1 1 d . . . . .
 O1 O 1.3044(18) 0.3399(13) 0.4975(16) 0.110(8) Uani 1 1 d . . . . .
 O4 O 0.6534(17) 0.5409(13) 0.3921(13) 0.092(6) Uani 1 1 d . . . . .
 O6 O 0.0670(16) 0.7213(14) 0.3900(15) 0.109(8) Uani 1 1 d . . . . .
 O8 O 1.2602(15) 0.7044(12) 0.4986(15) 0.102(8) Uani 1 1 d . . . . .
 O10 O 0.9299(16) 0.2782(12) 0.3905(13) 0.095(7) Uani 1 1 d . . . . .
 O12 O 0.955(2) 0.3749(15) 0.3079(13) 0.104(7) Uani 1 1 d . . . . .
 O14 O 0.045(2) 0.6259(18) 0.3094(16) 0.123(9) Uani 1 1 d . . . . .
 O16 O 0.3508(18) 0.4579(14) 0.3889(13) 0.095(6) Uani 1 1 d . . . . .
 O18 O 0.0835(19) 0.7539(18) 0.2705(15) 0.121(10) Uani 1 1 d . . . . .
 O20 O 0.9164(17) 0.2399(16) 0.2755(15) 0.115(9) Uani 1 1 d . . . . .
 O22 O 1.118(3) 0.553(2) 0.555(2) 0.074(4) Uani 0.5 1 d . . P A 2
 O24 O 1.157(3) 0.566(2) 0.429(2) 0.074(4) Uani 0.5 1 d . . P A 2
 O26 O 0.382(2) 0.3998(18) 0.2889(14) 0.127(10) Uani 1 1 d . . . . .
 O28 O 1.1265(18) 0.2558(12) 0.5011(14) 0.102(7) Uani 1 1 d . . . . .
 O30 O 1.332(2) 0.8151(14) 0.561(2) 0.154(15) Uani 1 1 d . . . . .
 O32 O 0.7578(17) 0.3192(16) 0.3271(12) 0.108(8) Uani 1 1 d . . . . .
 O34 O 0.521(2) 0.2910(19) 0.3715(16) 0.127(9) Uani 1 1 d . . . . .
 O36 O 1.4049(17) 0.5710(13) 0.4978(17) 0.123(10) Uani 1 1 d . . . . .
 O38 O 0.479(2) 0.709(2) 0.375(2) 0.148(12) Uani 1 1 d . . . . .
 O40 O 0.920(3) 0.572(3) 0.559(3) 0.074(4) Uani 0.46(4) 1 d . . P A 2
 O42 O 0.6222(19) 0.6035(17) 0.2919(12) 0.111(8) Uani 1 1 d . . . . .
 O43 O 0.192(2) 0.4642(19) 0.3132(14) 0.128(10) Uani 1 1 d . . . . .
 O11 O 0.620(3) 0.461(2) 0.298(3) 0.19(2) Uani 1 1 d . . . . .
 O23 O 0.2422(16) 0.6795(16) 0.3262(13) 0.113(9) Uani 1 1 d . . . . .
 O3 O 1.335(2) 0.8148(15) 0.440(2) 0.152(14) Uani 1 1 d . . . . .
 O25 O 0.379(3) 0.5333(19) 0.297(2) 0.175(18) Uani 1 1 d . . . . .
 O13 O 1.142(3) 0.815(2) 0.502(2) 0.170(15) Uani 1 1 d . . . . .
 O27 O 0.899(3) 0.607(2) 0.418(2) 0.074(4) Uani 0.5 1 d . . P A 2
 O7 O 0.8109(19) 0.5348(16) 0.3134(13) 0.109(8) Uani 1 1 d . . . . .
 O29 O 1.002(5) 0.502(2) 0.2245(16) 0.170(16) Uani 1 1 d . . . . .
 O15 O 0.667(3) 0.218(2) 0.2264(19) 0.077(9) Uiso 0.5 1 d . . P B 2
 O31 O 0.488(5) 0.375(4) 0.142(3) 0.118(15) Uani 0.5 1 d . . P B 2
 O2B O 0.298(5) 0.710(5) 0.184(4) 0.15(2) Uani 0.5 1 d . . P C 2
 O33 O 0.437(6) 0.816(3) 0.298(3) 0.118(18) Uani 0.5 1 d . . P C 1
 O17 O 0.497(3) 0.597(3) 0.162(2) 0.23(3) Uani 1 1 d . . . D 1
 O35 O 1.158(3) 0.570(2) 0.566(2) 0.074(4) Uani 0.5 1 d . . P A 1
 O9 O 1.120(3) 0.551(2) 0.445(2) 0.074(4) Uani 0.5 1 d . . P A 1
 O37 O 0.925(3) 0.575(2) 0.445(2) 0.074(4) Uani 0.5 1 d . . P A 1
 O19 O 0.898(3) 0.607(2) 0.577(2) 0.074(4) Uani 0.54(4) 1 d . . P A 1
 O39 O 0.741(3) 0.365(3) 0.178(3) 0.108(15) Uani 0.5 1 d . . P B 1
 O5 O 0.513(5) 0.413(4) 0.181(3) 0.118(15) Uani 0.5 1 d . . P B 1
 O41 O 1.3149(18) 0.1984(13) 0.4932(18) 0.124(4) Uani 1 1 d . . . . .
 O21 O 1.304(4) 0.244(3) 0.581(4) 0.124(4) Uani 0.5 1 d . . P . .
 O44 O 1.300(4) 0.254(3) 0.413(4) 0.124(4) Uani 0.5 1 d . . P . .
 O2A O 0.336(4) 0.781(5) 0.221(4) 0.15(2) Uani 0.5 1 d . . P C 1

loop_
  _atom_site_aniso_label
  _atom_site_aniso_U_11
  _atom_site_aniso_U_22
  _atom_site_aniso_U_33
  _atom_site_aniso_U_23
  _atom_site_aniso_U_13
  _atom_site_aniso_U_12
 U1 0.0356(4) 0.0732(5) 0.1079(8) 0.0000(4) -0.0017(4) -0.0002(3)
 U3 0.0370(4) 0.0709(5) 0.1186(8) 0.0000(5) -0.0019(4) -0.0016(3)
 U2 0.0506(5) 0.0955(7) 0.0913(7) -0.0001(5) -0.0019(4) 0.0119(4)
 Eu1 0.0429(9) 0.1346(18) 0.146(2) -0.0594(15) -0.0178(10) 0.0142(9)
 Eu2 0.0422(9) 0.1356(18) 0.150(2) 0.0626(15) 0.0155(10) 0.0151(9)
 S1 0.066(4) 0.120(6) 0.119(7) 0.032(5) 0.032(4) 0.026(4)
 S4 0.071(4) 0.110(6) 0.116(7) -0.030(5) -0.032(4) 0.030(4)
 S6 0.041(3) 0.121(6) 0.151(8) -0.057(6) -0.008(4) 0.011(3)
 S3 0.042(3) 0.131(7) 0.136(8) 0.061(6) 0.001(4) 0.008(4)
 S2 0.045(3) 0.084(4) 0.245(13) 0.005(6) -0.008(5) -0.003(3)
 S5 0.052(4) 0.074(4) 0.257(14) 0.004(6) 0.000(6) 0.002(3)
 O1 0.047(10) 0.093(14) 0.19(3) -0.007(14) -0.007(13) 0.015(9)
 O4 0.049(10) 0.105(14) 0.121(19) -0.014(12) -0.016(10) 0.005(9)
 O6 0.035(9) 0.120(16) 0.17(2) 0.042(16) 0.021(11) -0.013(9)
 O8 0.036(9) 0.083(12) 0.19(3) -0.002(13) -0.001(11) 0.000(8)
 O10 0.046(9) 0.099(14) 0.14(2) -0.038(13) -0.013(11) 0.005(9)
 O12 0.070(13) 0.130(18) 0.111(18) -0.026(14) 0.000(11) 0.011(12)
 O14 0.058(13) 0.16(2) 0.16(3) 0.011(19) 0.013(13) 0.014(14)
 O16 0.062(11) 0.114(16) 0.108(18) 0.006(13) 0.025(11) 0.001(10)
 O18 0.055(11) 0.16(2) 0.15(2) 0.074(18) 0.005(12) 0.004(12)
 O20 0.037(9) 0.132(19) 0.18(3) -0.017(17) -0.001(11) -0.014(10)
 O22 0.032(7) 0.073(9) 0.117(11) 0.000(7) 0.003(6) -0.006(5)
 O24 0.032(7) 0.073(9) 0.117(11) 0.000(7) 0.003(6) -0.006(5)
 O26 0.060(12) 0.18(3) 0.14(2) -0.044(19) -0.017(12) 0.063(15)
 O28 0.056(11) 0.078(11) 0.17(2) -0.009(13) 0.005(12) -0.019(9)
 O30 0.072(15) 0.089(15) 0.30(5) -0.07(2) -0.03(2) -0.030(12)
 O32 0.041(10) 0.18(2) 0.107(17) -0.045(15) -0.022(10) 0.031(11)
 O34 0.066(14) 0.17(3) 0.15(2) -0.009(19) -0.019(14) 0.009(14)
 O36 0.036(9) 0.094(14) 0.24(3) 0.006(16) 0.003(13) -0.015(9)
 O38 0.074(16) 0.17(3) 0.21(4) -0.01(2) 0.023(18) -0.015(16)
 O40 0.032(7) 0.073(9) 0.117(11) 0.000(7) 0.003(6) -0.006(5)
 O42 0.060(11) 0.17(2) 0.101(16) 0.017(15) 0.003(10) 0.053(13)
 O43 0.069(14) 0.19(3) 0.13(2) 0.024(18) 0.003(13) 0.073(16)
 O11 0.070(16) 0.19(3) 0.31(5) -0.11(3) -0.08(2) 0.027(18)
 O23 0.031(9) 0.19(2) 0.122(18) 0.062(17) 0.018(10) 0.034(11)
 O3 0.075(16) 0.094(16) 0.29(5) 0.04(2) 0.05(2) -0.015(12)
 O25 0.088(18) 0.15(3) 0.28(5) 0.09(3) 0.08(2) 0.036(17)
 O13 0.070(17) 0.18(3) 0.26(5) 0.01(3) 0.01(2) 0.052(18)
 O27 0.032(7) 0.073(9) 0.117(11) 0.000(7) 0.003(6) -0.006(5)
 O7 0.056(11) 0.16(2) 0.110(17) -0.007(15) -0.009(11) 0.044(12)
 O29 0.26(5) 0.16(3) 0.087(19) -0.023(18) -0.02(2) 0.05(3)
 O31 0.08(2) 0.18(5) 0.10(4) 0.02(3) 0.02(2) -0.02(2)
 O2B 0.05(2) 0.26(7) 0.15(5) 0.09(4) 0.00(2) 0.04(3)
 O33 0.17(5) 0.09(3) 0.09(3) 0.00(2) 0.03(3) 0.02(3)
 O17 0.12(3) 0.37(7) 0.19(4) -0.12(4) -0.07(3) 0.00(3)
 O35 0.032(7) 0.073(9) 0.117(11) 0.000(7) 0.003(6) -0.006(5)
 O9 0.032(7) 0.073(9) 0.117(11) 0.000(7) 0.003(6) -0.006(5)
 O37 0.032(7) 0.073(9) 0.117(11) 0.000(7) 0.003(6) -0.006(5)
 O19 0.032(7) 0.073(9) 0.117(11) 0.000(7) 0.003(6) -0.006(5)
 O39 0.034(17) 0.16(4) 0.13(4) 0.01(3) 0.04(2) 0.02(2)
 O5 0.08(2) 0.18(5) 0.10(4) 0.02(3) 0.02(2) -0.02(2)
 O41 0.045(3) 0.084(4) 0.245(13) 0.005(6) -0.008(5) -0.003(3)
 O21 0.045(3) 0.084(4) 0.245(13) 0.005(6) -0.008(5) -0.003(3)
 O44 0.045(3) 0.084(4) 0.245(13) 0.005(6) -0.008(5) -0.003(3)
 O2A 0.05(2) 0.26(7) 0.15(5) 0.09(4) 0.00(2) 0.04(3)

_geom_special_details
;
 All esds (except the esd in the dihedral angle between two l.s. planes)
 are estimated using the full covariance matrix.  The cell esds are taken
 into account individually in the estimation of esds in distances, angles
 and torsion angles; correlations between esds in cell parameters are only
 used when they are defined by crystal symmetry.  An approximate (isotropic)
 treatment of cell esds is used for estimating esds involving l.s. planes.
;
loop_
  _geom_bond_atom_site_label_1
  _geom_bond_atom_site_label_2
  _geom_bond_distance
  _geom_bond_site_symmetry_2
  _geom_bond_publ_flag
 U1 O1 2.32(2) . ?
 U1 O4 2.44(2) 3_766 ?
 U1 O16 2.52(2) 1_655 ?
 U1 O22 2.23(4) . ?
 U1 O24 2.34(4) . ?
 U1 O36 2.507(19) . ?
 U1 O40 2.20(4) 3_766 ?
 U1 O27 2.57(4) 3_766 ?
 U1 O35 2.34(4) . ?
 U1 O9 2.19(4) . ?
 U1 O37 2.23(3) 3_766 ?
 U1 O19 2.50(4) 3_766 ?
 U3 O6 2.43(3) 1_655 ?
 U3 O8 2.422(17) . ?
 U3 O10 2.43(2) 3_766 ?
 U3 O22 2.24(4) . ?
 U3 O24 2.41(4) . ?
 U3 O28 2.40(2) 3_766 ?
 U3 O40 2.35(4) . ?
 U3 O27 2.47(4) . ?
 U3 O35 2.33(4) . ?
 U3 O9 2.28(4) . ?
 U3 O37 2.25(4) . ?
 U3 O19 2.42(3) . ?
 U2 O12 2.43(2) . ?
 U2 O14 2.43(3) 1_655 ?
 U2 O22 2.28(4) 3_766 ?
 U2 O24 2.45(4) . ?
 U2 O40 2.19(5) 3_766 ?
 U2 O43 2.37(2) 1_655 ?
 U2 O27 2.41(4) . ?
 U2 O7 2.34(2) . ?
 U2 O35 2.54(4) 3_766 ?
 U2 O9 2.27(4) . ?
 U2 O37 2.25(4) . ?
 U2 O19 2.45(4) 3_766 ?
 Eu1 O18 2.32(2) 2_545 ?
 Eu1 O26 2.392(18) . ?
 Eu1 O32 2.396(19) . ?
 Eu1 O34 2.37(3) . ?
 Eu1 O11 2.28(3) . ?
 Eu1 O15 2.39(4) . ?
 Eu1 O31 2.63(6) . ?
 Eu1 O39 2.51(4) . ?
 Eu1 O5 2.15(6) . ?
 Eu2 O20 2.29(2) 2_655 ?
 Eu2 O38 2.42(4) . ?
 Eu2 O42 2.422(18) . ?
 Eu2 O23 2.382(18) . ?
 Eu2 O25 2.36(3) . ?
 Eu2 O2B 2.24(5) . ?
 Eu2 O33 2.71(5) . ?
 Eu2 O17 2.41(4) . ?
 Eu2 O2A 2.40(6) . ?
 S1 O16 1.35(3) . ?
 S1 O26 1.43(3) . ?
 S1 O43 1.47(3) . ?
 S1 O25 1.39(3) . ?
 S4 O4 1.38(3) . ?
 S4 O42 1.44(2) . ?
 S4 O11 1.46(3) . ?
 S4 O7 1.52(2) . ?
 S6 O10 1.44(3) . ?
 S6 O12 1.45(3) . ?
 S6 O20 1.51(3) . ?
 S6 O32 1.431(19) . ?
 S3 O6 1.43(3) . ?
 S3 O14 1.45(3) . ?
 S3 O18 1.49(2) . ?
 S3 O23 1.443(18) . ?
 S2 O1 1.46(2) . ?
 S2 O28 1.50(2) . ?
 S2 O41 1.16(2) . ?
 S2 O21 1.68(7) . ?
 S2 O44 1.77(7) . ?
 S5 O8 1.44(2) . ?
 S5 O30 1.49(4) . ?
 S5 O3 1.46(4) . ?
 S5 O13 1.42(3) . ?

loop_
  _geom_angle_atom_site_label_1
  _geom_angle_atom_site_label_2
  _geom_angle_atom_site_label_3
  _geom_angle
  _geom_angle_site_symmetry_1
  _geom_angle_site_symmetry_3
  _geom_angle_publ_flag
 O1 U1 O4 78.7(9) . 3_766 ?
 O1 U1 O16 76.1(9) . 1_655 ?
 O1 U1 O24 140.9(13) . . ?
 O1 U1 O36 115.9(7) . . ?
 O1 U1 O27 73.2(10) . 3_766 ?
 O1 U1 O35 146.0(13) . . ?
 O1 U1 O19 71.2(11) . 3_766 ?
 O4 U1 O16 121.7(7) 3_766 1_655 ?
 O4 U1 O36 73.6(9) 3_766 . ?
 O4 U1 O27 71.8(10) 3_766 3_766 ?
 O4 U1 O19 141.9(10) 3_766 3_766 ?
 O16 U1 O27 142.8(10) 1_655 3_766 ?
 O22 U1 O1 143.4(13) . . ?
 O22 U1 O24 67.4(15) . . ?
 O22 U1 O36 89.3(11) . . ?
 O22 U1 O19 106.4(14) . 3_766 ?
 O24 U1 O36 76.9(10) . . ?
 O24 U1 O19 76.8(13) . 3_766 ?
 O36 U1 O16 71.9(9) . 1_655 ?
 O36 U1 O27 141.5(12) . 3_766 ?
 O40 U1 O1 85.6(15) 3_766 . ?
 O40 U1 O22 90.4(17) 3_766 . ?
 O40 U1 O24 67.2(15) 3_766 . ?
 O40 U1 O36 141.1(14) 3_766 . ?
 O40 U1 O19 16.3(11) 3_766 3_766 ?
 O35 U1 O4 74.9(12) . 3_766 ?
 O35 U1 O16 136.7(11) . 1_655 ?
 O35 U1 O36 76.6(10) . . ?
 O35 U1 O27 78.4(13) . 3_766 ?
 O35 U1 O19 120.3(13) . 3_766 ?
 O9 U1 O1 140.7(13) . . ?
 O9 U1 O4 139.9(13) . 3_766 ?
 O9 U1 O16 84.0(12) . 1_655 ?
 O9 U1 O36 88.6(11) . . ?
 O9 U1 O40 58.5(16) . 3_766 ?
 O9 U1 O27 107.3(12) . 3_766 ?
 O9 U1 O35 66.0(16) . . ?
 O9 U1 O37 89.6(14) . 3_766 ?
 O9 U1 O19 70.7(14) . 3_766 ?
 O37 U1 O1 86.1(11) 3_766 . ?
 O37 U1 O4 86.0(12) 3_766 3_766 ?
 O37 U1 O16 142.2(12) 3_766 1_655 ?
 O37 U1 O36 145.3(13) 3_766 . ?
 O37 U1 O27 17.8(10) 3_766 3_766 ?
 O37 U1 O35 71.1(12) 3_766 . ?
 O37 U1 O19 69.4(14) 3_766 3_766 ?
 O19 U1 O16 73.3(10) 3_766 1_655 ?
 O19 U1 O36 141.0(12) 3_766 . ?
 O19 U1 O27 77.3(12) 3_766 3_766 ?
 O6 U3 O10 126.8(9) 1_655 3_766 ?
 O6 U3 O27 67.5(11) 1_655 . ?
 O8 U3 O6 76.9(8) . 1_655 ?
 O8 U3 O10 77.3(8) . 3_766 ?
 O8 U3 O27 137.1(11) . . ?
 O10 U3 O27 144.0(9) 3_766 . ?
 O22 U3 O8 86.9(10) . . ?
 O22 U3 O24 65.8(15) . . ?
 O22 U3 O40 56.7(14) . . ?
 O22 U3 O27 104.8(14) . . ?
 O24 U3 O8 75.2(10) . . ?
 O24 U3 O27 72.8(12) . . ?
 O28 U3 O6 77.9(8) 3_766 1_655 ?
 O28 U3 O8 124.0(6) 3_766 . ?
 O28 U3 O10 79.4(8) 3_766 3_766 ?
 O28 U3 O24 141.1(12) 3_766 . ?
 O28 U3 O27 71.6(10) 3_766 . ?
 O28 U3 O19 71.9(11) 3_766 . ?
 O40 U3 O8 140.6(12) . . ?
 O40 U3 O24 99.5(16) . . ?
 O40 U3 O27 73.1(15) . . ?
 O35 U3 O6 138.5(11) . 1_655 ?
 O35 U3 O8 74.5(10) . . ?
 O35 U3 O10 74.6(12) . 3_766 ?
 O35 U3 O28 143.5(12) . 3_766 ?
 O35 U3 O19 75.4(13) . . ?
 O9 U3 O6 84.0(13) . 1_655 ?
 O9 U3 O8 86.2(10) . . ?
 O9 U3 O10 139.0(12) . 3_766 ?
 O9 U3 O28 139.0(11) . 3_766 ?
 O9 U3 O35 64.8(16) . . ?
 O9 U3 O19 103.6(15) . . ?
 O37 U3 O6 83.5(12) . 1_655 ?
 O37 U3 O8 139.9(11) . . ?
 O37 U3 O10 140.5(11) . 3_766 ?
 O37 U3 O28 84.4(10) . 3_766 ?
 O37 U3 O35 99.7(14) . . ?
 O37 U3 O9 56.9(12) . . ?
 O37 U3 O19 70.7(14) . . ?
 O19 U3 O6 141.7(9) . 1_655 ?
 O19 U3 O8 140.2(11) . . ?
 O19 U3 O10 70.1(12) . 3_766 ?
 O12 U2 O14 129.4(10) . 1_655 ?
 O12 U2 O24 141.6(11) . . ?
 O12 U2 O35 72.2(11) . 3_766 ?
 O12 U2 O19 69.7(12) . 3_766 ?
 O14 U2 O24 71.6(12) 1_655 . ?
 O14 U2 O35 142.4(10) 1_655 3_766 ?
 O14 U2 O19 140.6(9) 1_655 3_766 ?
 O22 U2 O12 81.6(12) 3_766 . ?
 O22 U2 O24 99.9(14) 3_766 . ?
 O22 U2 O27 72.9(13) 3_766 . ?
 O22 U2 O7 84.2(12) 3_766 . ?
 O22 U2 O19 66.4(12) 3_766 3_766 ?
 O24 U2 O19 75.7(13) . 3_766 ?
 O40 U2 O12 84.1(15) 3_766 . ?
 O40 U2 O24 65.4(15) 3_766 . ?
 O40 U2 O27 106.0(18) 3_766 . ?
 O40 U2 O7 141.7(12) 3_766 . ?
 O40 U2 O19 16.8(13) 3_766 3_766 ?
 O43 U2 O12 77.2(10) 1_655 . ?
 O43 U2 O14 83.2(9) 1_655 1_655 ?
 O43 U2 O24 74.2(12) 1_655 . ?
 O43 U2 O27 141.5(11) 1_655 . ?
 O43 U2 O35 134.4(11) 1_655 3_766 ?
 O43 U2 O19 67.0(11) 1_655 3_766 ?
 O27 U2 O12 140.9(9) . . ?
 O27 U2 O24 73.3(12) . . ?
 O27 U2 O19 122.6(15) . 3_766 ?
 O7 U2 O12 82.6(9) . . ?
 O7 U2 O14 77.5(9) . 1_655 ?
 O7 U2 O24 135.9(11) . . ?
 O7 U2 O43 132.7(9) . 1_655 ?
 O7 U2 O27 66.0(11) . . ?
 O7 U2 O35 75.7(11) . 3_766 ?
 O7 U2 O19 141.7(10) . 3_766 ?
 O9 U2 O12 139.8(12) . . ?
 O9 U2 O14 81.6(13) . 1_655 ?
 O9 U2 O22 86.9(14) . 3_766 ?
 O9 U2 O43 83.3(12) . 1_655 ?
 O9 U2 O7 134.4(12) . . ?
 O9 U2 O35 99.0(14) . 3_766 ?
 O9 U2 O19 70.3(14) . 3_766 ?
 O37 U2 O12 138.5(10) . . ?
 O37 U2 O14 82.9(12) . 1_655 ?
 O37 U2 O22 59.3(14) . 3_766 ?
 O37 U2 O43 139.4(12) . 1_655 ?
 O37 U2 O7 80.4(11) . . ?
 O37 U2 O35 67.0(13) . 3_766 ?
 O37 U2 O9 57.0(13) . . ?
 O37 U2 O19 102.9(16) . 3_766 ?
 O19 U2 O35 71.0(12) 3_766 3_766 ?
 O18 Eu1 O26 72.2(9) 2_545 . ?
 O18 Eu1 O32 133.1(11) 2_545 . ?
 O18 Eu1 O34 82.6(10) 2_545 . ?
 O18 Eu1 O15 72.8(11) 2_545 . ?
 O18 Eu1 O31 68.6(16) 2_545 . ?
 O18 Eu1 O39 117.5(15) 2_545 . ?
 O26 Eu1 O32 131.8(8) . . ?
 O26 Eu1 O31 77.4(15) . . ?
 O26 Eu1 O39 133.8(14) . . ?
 O32 Eu1 O31 144.2(13) . . ?
 O32 Eu1 O39 77.1(13) . . ?
 O34 Eu1 O26 74.9(10) . . ?
 O34 Eu1 O32 70.7(9) . . ?
 O34 Eu1 O15 95.0(12) . . ?
 O34 Eu1 O31 144.9(12) . . ?
 O34 Eu1 O39 147.4(13) . . ?
 O11 Eu1 O18 145.1(9) . 2_545 ?
 O11 Eu1 O26 73.5(11) . . ?
 O11 Eu1 O32 76.7(10) . . ?
 O11 Eu1 O34 94.5(16) . . ?
 O11 Eu1 O15 142.0(12) . . ?
 O11 Eu1 O31 98(2) . . ?
 O11 Eu1 O39 82.9(17) . . ?
 O15 Eu1 O26 144.5(12) . . ?
 O15 Eu1 O32 72.0(11) . . ?
 O15 Eu1 O31 95.2(18) . . ?
 O5 Eu1 O18 86.0(18) . 2_545 ?
 O5 Eu1 O26 68.6(17) . . ?
 O5 Eu1 O32 137.1(16) . . ?
 O5 Eu1 O34 143.5(16) . . ?
 O5 Eu1 O11 76(2) . . ?
 O5 Eu1 O39 67.4(18) . . ?
 O20 Eu2 O38 86.4(10) 2_655 . ?
 O20 Eu2 O42 70.3(9) 2_655 . ?
 O20 Eu2 O23 136.9(10) 2_655 . ?
 O20 Eu2 O25 142.9(8) 2_655 . ?
 O20 Eu2 O33 59.7(14) 2_655 . ?
 O20 Eu2 O17 75.7(15) 2_655 . ?
 O20 Eu2 O2A 72.8(15) 2_655 . ?
 O38 Eu2 O42 73.3(10) . . ?
 O38 Eu2 O33 55.8(14) . . ?
 O38 Eu2 O2A 98(2) . . ?
 O42 Eu2 O33 107.6(16) . . ?
 O23 Eu2 O38 71.0(9) . . ?
 O23 Eu2 O42 131.6(8) . . ?
 O23 Eu2 O33 77.3(14) . . ?
 O23 Eu2 O17 139.6(12) . . ?
 O23 Eu2 O2A 74.5(15) . . ?
 O25 Eu2 O38 95.2(15) . . ?
 O25 Eu2 O42 74.7(11) . . ?
 O25 Eu2 O23 77.2(9) . . ?
 O25 Eu2 O33 146.5(15) . . ?
 O25 Eu2 O17 83.3(18) . . ?
 O25 Eu2 O2A 142.9(17) . . ?
 O2B Eu2 O38 131(2) . . ?
 O2B Eu2 O42 149.8(18) . . ?
 O2B Eu2 O23 78.2(17) . . ?
 O2B Eu2 O25 114(2) . . ?
 O17 Eu2 O38 146.6(11) . . ?
 O17 Eu2 O42 74.2(11) . . ?
 O17 Eu2 O33 130.0(19) . . ?
 O17 Eu2 O2A 104(2) . . ?
 O2A Eu2 O42 142.3(17) . . ?
 O2A Eu2 O33 45(2) . . ?
 O16 S1 O26 107.4(16) . . ?
 O16 S1 O43 108.4(15) . . ?
 O16 S1 O25 110(2) . . ?
 O26 S1 O43 111.3(18) . . ?
 O25 S1 O26 108(2) . . ?
 O25 S1 O43 111.8(19) . . ?
 O4 S4 O42 108.0(14) . . ?
 O4 S4 O11 110(2) . . ?
 O4 S4 O7 106.3(13) . . ?
 O42 S4 O11 114(2) . . ?
 O42 S4 O7 108.5(15) . . ?
 O11 S4 O7 110.0(17) . . ?
 O10 S6 O12 107.9(14) . . ?
 O10 S6 O20 107.1(15) . . ?
 O12 S6 O20 109.9(15) . . ?
 O32 S6 O10 110.6(15) . . ?
 O32 S6 O12 110.8(16) . . ?
 O32 S6 O20 110.5(12) . . ?
 O6 S3 O14 105.3(15) . . ?
 O6 S3 O18 112.9(17) . . ?
 O6 S3 O23 112.6(15) . . ?
 O14 S3 O18 106.4(18) . . ?
 O23 S3 O14 108.8(17) . . ?
 O23 S3 O18 110.4(13) . . ?
 O1 S2 O28 108.7(12) . . ?
 O1 S2 O21 95(2) . . ?
 O1 S2 O44 87(2) . . ?
 O28 S2 O21 104(2) . . ?
 O28 S2 O44 103.6(18) . . ?
 O41 S2 O1 134.0(14) . . ?
 O41 S2 O28 116.6(14) . . ?
 O41 S2 O21 82(2) . . ?
 O41 S2 O44 76(2) . . ?
 O21 S2 O44 150(2) . . ?
 O8 S5 U3 44.4(7) . . ?
 O8 S5 O30 109.2(18) . . ?
 O8 S5 O3 108.6(17) . . ?
 O30 S5 U3 123.7(15) . . ?
 O3 S5 U3 125.9(16) . . ?
 O3 S5 O30 109(2) . . ?
 O13 S5 U3 61.8(17) . . ?
 O13 S5 O8 106.1(18) . . ?
 O13 S5 O30 109(2) . . ?
 O13 S5 O3 115(2) . . ?
 S2 O1 U1 144.7(13) . . ?
 S4 O4 U1 141.6(12) . 3_766 ?
 S3 O6 U3 134.5(14) . 1_455 ?
 S5 O8 U3 111.1(10) . . ?
 S6 O10 U3 133.9(12) . 3_766 ?
 S6 O12 U2 136.6(15) . . ?
 S3 O14 U2 138.6(19) . 1_455 ?
 S1 O16 U1 138.5(13) . 1_455 ?
 S3 O18 Eu1 139.5(14) . 2 ?
 S6 O20 Eu2 142.4(13) . 2_645 ?
 U1 O22 U3 118(2) . . ?
 U1 O22 U2 115.7(17) . 3_766 ?
 U3 O22 U2 119.0(15) . 3_766 ?
 U1 O24 U3 107.6(18) . . ?
 U1 O24 U2 105.6(14) . . ?
 U3 O24 U2 106.5(12) . . ?
 S1 O26 Eu1 144.8(18) . . ?
 S2 O28 U3 141.2(12) . 3_766 ?
 S6 O32 Eu1 146.4(15) . . ?
 U1 O40 U3 114(2) 3_766 . ?
 U2 O40 U1 120.9(19) 3_766 3_766 ?
 U2 O40 U3 118.5(15) 3_766 . ?
 S4 O42 Eu2 140.9(17) . . ?
 S1 O43 U2 145(2) . 1_455 ?
 S4 O11 Eu1 169.5(18) . . ?
 S3 O23 Eu2 147.3(15) . . ?
 S1 O25 Eu2 167.1(18) . . ?
 S5 O13 U3 92.3(17) . . ?
 U3 O27 U1 98.4(16) . 3_766 ?
 U2 O27 U1 100.1(13) . 3_766 ?
 U2 O27 U3 106.0(12) . . ?
 S4 O7 U2 144.8(16) . . ?
 U1 O35 U2 102.9(14) . 3_766 ?
 U3 O35 U1 110.7(19) . . ?
 U3 O35 U2 106.3(12) . 3_766 ?
 U1 O9 U3 118(2) . . ?
 U1 O9 U2 117.4(18) . . ?
 U2 O9 U3 117.6(16) . . ?
 U1 O37 U3 117.1(19) 3_766 . ?
 U1 O37 U2 117.1(15) 3_766 . ?
 U3 O37 U2 120.4(13) . . ?
 U3 O19 U1 101.9(17) . 3_766 ?
 U3 O19 U2 106.4(13) . 3_766 ?
 U2 O19 U1 100.9(15) 3_766 3_766 ?

loop_
  _geom_torsion_atom_site_label_1
  _geom_torsion_atom_site_label_2
  _geom_torsion_atom_site_label_3
  _geom_torsion_atom_site_label_4
  _geom_torsion
  _geom_torsion_site_symmetry_1
  _geom_torsion_site_symmetry_2
  _geom_torsion_site_symmetry_3
  _geom_torsion_site_symmetry_4
  _geom_torsion_publ_flag
 O1 S2 O28 U3 1(3) . . . 3_766 ?
 O4 S4 O42 Eu2 -74(3) . . . . ?
 O4 S4 O11 Eu1 -93(19) . . . . ?
 O4 S4 O7 U2 31(3) . . . . ?
 O6 S3 O14 U2 -53(2) . . . 1_455 ?
 O6 S3 O18 Eu1 -37(3) . . . 2 ?
 O6 S3 O23 Eu2 -161(3) . . . . ?
 O8 S5 O13 U3 -1(2) . . . . ?
 O10 S6 O12 U2 -52(2) . . . . ?
 O10 S6 O20 Eu2 -52(3) . . . 2_645 ?
 O10 S6 O32 Eu1 -163(3) . . . . ?
 O12 S6 O10 U3 53.0(19) . . . 3_766 ?
 O12 S6 O20 Eu2 65(3) . . . 2_645 ?
 O12 S6 O32 Eu1 78(3) . . . . ?
 O14 S3 O6 U3 55(2) . . . 1_455 ?
 O14 S3 O18 Eu1 78(3) . . . 2 ?
 O14 S3 O23 Eu2 83(3) . . . . ?
 O16 S1 O26 Eu1 -64(4) . . . . ?
 O16 S1 O43 U2 33(4) . . . 1_455 ?
 O16 S1 O25 Eu2 -87(15) . . . . ?
 O18 S3 O6 U3 170.5(15) . . . 1_455 ?
 O18 S3 O14 U2 -172.7(19) . . . 1_455 ?
 O18 S3 O23 Eu2 -34(4) . . . . ?
 O20 S6 O10 U3 171.2(14) . . . 3_766 ?
 O20 S6 O12 U2 -168.2(18) . . . . ?
 O20 S6 O32 Eu1 -44(4) . . . . ?
 O26 S1 O16 U1 -135(2) . . . 1_455 ?
 O26 S1 O43 U2 151(3) . . . 1_455 ?
 O26 S1 O25 Eu2 156(14) . . . . ?
 O28 S2 O1 U1 4(4) . . . . ?
 O30 S5 O8 U3 119.0(17) . . . . ?
 O30 S5 O13 U3 -118.6(17) . . . . ?
 O32 S6 O10 U3 -68(2) . . . 3_766 ?
 O32 S6 O12 U2 69(2) . . . . ?
 O32 S6 O20 Eu2 -173(3) . . . 2_645 ?
 O42 S4 O4 U1 -130(2) . . . 3_766 ?
 O42 S4 O11 Eu1 146(18) . . . . ?
 O42 S4 O7 U2 147(3) . . . . ?
 O43 S1 O16 U1 -15(3) . . . 1_455 ?
 O43 S1 O26 Eu1 177(3) . . . . ?
 O43 S1 O25 Eu2 33(16) . . . . ?
 O11 S4 O4 U1 105(2) . . . 3_766 ?
 O11 S4 O42 Eu2 49(3) . . . . ?
 O11 S4 O7 U2 -88(3) . . . . ?
 O23 S3 O6 U3 -64(2) . . . 1_455 ?
 O23 S3 O14 U2 68(3) . . . 1_455 ?
 O23 S3 O18 Eu1 -164(3) . . . 2 ?
 O3 S5 O8 U3 -122.7(19) . . . . ?
 O3 S5 O13 U3 119.0(19) . . . . ?
 O25 S1 O16 U1 108(2) . . . 1_455 ?
 O25 S1 O26 Eu1 54(4) . . . . ?
 O25 S1 O43 U2 -88(4) . . . 1_455 ?
 O13 S5 O8 U3 1(3) . . . . ?
 O7 S4 O4 U1 -14(3) . . . 3_766 ?
 O7 S4 O42 Eu2 172(2) . . . . ?
 O7 S4 O11 Eu1 24(20) . . . . ?
 O41 S2 O1 U1 174(3) . . . . ?
 O41 S2 O28 U3 -171(3) . . . 3_766 ?
 O21 S2 O1 U1 -102(4) . . . . ?
 O21 S2 O28 U3 101(3) . . . 3_766 ?
 O44 S2 O1 U1 107(4) . . . . ?
 O44 S2 O28 U3 -91(3) . . . 3_766 ?

_smtbx_masks_special_details       ?
loop_
  _smtbx_masks_void_nr
  _smtbx_masks_void_average_x
  _smtbx_masks_void_average_y
  _smtbx_masks_void_average_z
  _smtbx_masks_void_volume
  _smtbx_masks_void_count_electrons
  _smtbx_masks_void_content
 1 -0.612 0.000 0.500 347.1 144.3 ?
 2 0.083 0.500 1.000 347.1 144.3 ?

_smtbx_masks_void_probe_radius     1.2
_smtbx_masks_void_truncation_radius  1.2
_shelx_res_file
;
TITL ic-217d-eu_a.res in P2(1)/n
    ic-217d-eu.res
    created by SHELXL-2018/3 at 11:28:59 on 14-Sep-2022
REM Old TITL IC-217D-Eu in P2(1)/m
REM SHELXT solution in P2(1)/n: R1 0.270, Rweak 0.050, Alpha 0.045
REM <I/s> 1.558 for 248 systematic absences, Orientation as input
REM Formula found by SHELXT: O29 S6 Eu2 U3
CELL 1.54184 10.8708 17.0569 19.7963 90 90 90
ZERR 2 0.0002 0.0005 0.0009 0 0 0
LATT 1
SYMM 0.5-X,0.5+Y,0.5-Z
SFAC Eu O S U
UNIT 8 146 24 12
EADP O35 O22 O24 O9 O37 O27 O19 O40
EADP O21 O41 S2 O44
EADP O31 O5
EADP O2B O2A

L.S. 20
PLAN  51
TEMP 20(2)
CONF
BIND U2 O29
list 4
MORE -1
ABIN
fmap 2 53
acta
REM <olex2.extras>
REM <HklSrc "%./IC-217D-Eu.hkl">
REM </olex2.extras>

WGHT    0.139700   59.578098
FVAR       0.12081   0.53935
U1    4    1.238710    0.469125    0.500017    11.00000    0.03560    0.07315 =
         0.10792    0.00002   -0.00173   -0.00022
U3    4    1.049092    0.658964    0.500012    11.00000    0.03702    0.07091 =
         0.11865   -0.00004   -0.00189   -0.00156
U2    4    0.999975    0.500044    0.361084    11.00000    0.05056    0.09546 =
         0.09130   -0.00007   -0.00189    0.01191
EU1   1    0.573811    0.337802    0.262362    11.00000    0.04289    0.13457 =
         0.14565   -0.05940   -0.01784    0.01420
EU2   1    0.426429    0.662244    0.262693    11.00000    0.04215    0.13564 =
         0.15005    0.06265    0.01546    0.01512
S1    3    0.326223    0.464807    0.322320    11.00000    0.06580    0.12008 =
         0.11897    0.03164    0.03166    0.02587
S4    3    0.672611    0.534592    0.323605    11.00000    0.07071    0.11022 =
         0.11650   -0.02963   -0.03177    0.02986
S6    3    0.887329    0.304244    0.325450    11.00000    0.04113    0.12150 =
         0.15050   -0.05697   -0.00839    0.01109
S3    3    0.112286    0.696906    0.325286    11.00000    0.04212    0.13080 =
         0.13642    0.06108    0.00058    0.00837
S2    3    1.264667    0.258126    0.499765    11.00000    0.04487    0.08366 =
         0.24487    0.00452   -0.00771   -0.00348
S5    3    1.265736    0.788718    0.499158    11.00000    0.05201    0.07417 =
         0.25697    0.00411    0.00010    0.00191
O1    2    1.304385    0.339892    0.497526    11.00000    0.04667    0.09299 =
         0.18961   -0.00703   -0.00716    0.01535
O4    2    0.653449    0.540895    0.392088    11.00000    0.04916    0.10500 =
         0.12089   -0.01406   -0.01614    0.00532
O6    2    0.066992    0.721280    0.390040    11.00000    0.03452    0.11977 =
         0.17330    0.04193    0.02079   -0.01348
O8    2    1.260153    0.704378    0.498554    11.00000    0.03552    0.08284 =
         0.18900   -0.00247   -0.00063    0.00012
O10   2    0.929895    0.278213    0.390542    11.00000    0.04634    0.09938 =
         0.14022   -0.03817   -0.01282    0.00533
O12   2    0.954858    0.374850    0.307919    11.00000    0.06997    0.12972 =
         0.11105   -0.02625    0.00022    0.01087
O14   2    0.045277    0.625937    0.309421    11.00000    0.05767    0.15549 =
         0.15655    0.01052    0.01257    0.01357
O16   2    0.350773    0.457878    0.388934    11.00000    0.06188    0.11400 =
         0.10802    0.00554    0.02483    0.00140
O18   2    0.083493    0.753872    0.270503    11.00000    0.05468    0.15800 =
         0.15012    0.07365    0.00529    0.00426
O20   2    0.916419    0.239886    0.275523    11.00000    0.03738    0.13198 =
         0.17618   -0.01695   -0.00076   -0.01363
PART 2
O22   2    1.118166    0.552906    0.555165    10.50000    0.03163    0.07280 =
         0.11671   -0.00040    0.00302   -0.00575
O24   2    1.156699    0.566107    0.429426    10.50000    0.03163    0.07280 =
         0.11671   -0.00040    0.00302   -0.00575
PART 0
O26   2    0.382492    0.399764    0.288948    11.00000    0.05996    0.18304 =
         0.13789   -0.04403   -0.01698    0.06300
O28   2    1.126480    0.255788    0.501059    11.00000    0.05634    0.07766 =
         0.17289   -0.00914    0.00514   -0.01919
O30   2    1.332110    0.815140    0.561100    11.00000    0.07241    0.08940 =
         0.30108   -0.06824   -0.03221   -0.03008
O32   2    0.757802    0.319240    0.327085    11.00000    0.04133    0.17658 =
         0.10700   -0.04541   -0.02195    0.03067
O34   2    0.521284    0.291043    0.371453    11.00000    0.06563    0.17123 =
         0.14504   -0.00880   -0.01911    0.00851
O36   2    1.404871    0.571008    0.497753    11.00000    0.03597    0.09421 =
         0.23802    0.00563    0.00320   -0.01498
O38   2    0.478541    0.708757    0.374503    11.00000    0.07404    0.16549 =
         0.20590   -0.01248    0.02258   -0.01459
PART 2
O40   2    0.919923    0.572464    0.559085   -21.00000    0.03163    0.07280 =
         0.11671   -0.00040    0.00302   -0.00575
PART 0
O42   2    0.622180    0.603463    0.291864    11.00000    0.05954    0.17199 =
         0.10079    0.01708    0.00260    0.05291
O43   2    0.192000    0.464171    0.313216    11.00000    0.06930    0.18983 =
         0.12528    0.02430    0.00345    0.07312
O11   2    0.620376    0.461454    0.298497    11.00000    0.06954    0.19055 =
         0.30513   -0.10767   -0.08033    0.02677
O23   2    0.242213    0.679486    0.326175    11.00000    0.03124    0.18664 =
         0.12226    0.06185    0.01757    0.03389
O3    2    1.334843    0.814791    0.439793    11.00000    0.07542    0.09363 =
         0.28644    0.03607    0.04528   -0.01496
O25   2    0.379055    0.533312    0.297257    11.00000    0.08770    0.15159 =
         0.28494    0.09047    0.08033    0.03625
O13   2    1.142327    0.815116    0.501882    11.00000    0.06975    0.17926 =
         0.26207    0.00656    0.01473    0.05195
PART 2
O27   2    0.898770    0.607247    0.417612    10.50000    0.03163    0.07280 =
         0.11671   -0.00040    0.00302   -0.00575
PART 0
O7    2    0.810912    0.534808    0.313409    11.00000    0.05615    0.16103 =
         0.11029   -0.00682   -0.00901    0.04424

O29   2    1.001656    0.502401    0.224533    11.00000    0.26500    0.15774 =
         0.08704   -0.02267   -0.02305    0.05331
PART 2
O15   2    0.667489    0.218158    0.226385    10.50000    0.07664
O31   2    0.487747    0.375248    0.142391    10.50000    0.07616    0.17899 =
         0.10018    0.02233    0.01599   -0.02257
O2B   2    0.297767    0.710410    0.184376    10.50000    0.04803    0.25709 =
         0.15343    0.08892   -0.00269    0.04135
PART 1
O33   2    0.436804    0.815671    0.297865    10.50000    0.17343    0.08791 =
         0.09146   -0.00204    0.02530    0.01624
O17   2    0.497128    0.597407    0.161687    11.00000    0.12106    0.36545 =
         0.19127   -0.12463   -0.07398   -0.00380
O35   2    1.158186    0.570245    0.566406    10.50000    0.03163    0.07280 =
         0.11671   -0.00040    0.00302   -0.00575
O9    2    1.119865    0.550760    0.444521    10.50000    0.03163    0.07280 =
         0.11671   -0.00040    0.00302   -0.00575
O37   2    0.925172    0.575493    0.444587    10.50000    0.03163    0.07280 =
         0.11671   -0.00040    0.00302   -0.00575
O19   2    0.898193    0.606656    0.577490    21.00000    0.03163    0.07280 =
         0.11671   -0.00040    0.00302   -0.00575
O39   2    0.740572    0.365240    0.178138    10.50000    0.03360    0.15676 =
         0.13268    0.01241    0.03836    0.02103
O5    2    0.513060    0.412535    0.181366    10.50000    0.07616    0.17899 =
         0.10018    0.02233    0.01599   -0.02257
PART 0
O41   2    1.314864    0.198398    0.493169    11.00000    0.04487    0.08366 =
         0.24487    0.00452   -0.00771   -0.00348
O21   2    1.304245    0.243848    0.580608    10.50000    0.04487    0.08366 =
         0.24487    0.00452   -0.00771   -0.00348
O44   2    1.300484    0.254231    0.412640    10.50000    0.04487    0.08366 =
         0.24487    0.00452   -0.00771   -0.00348
PART 1
O2A   2    0.335819    0.781378    0.221043    10.50000    0.04803    0.25709 =
         0.15343    0.08892   -0.00269    0.04135
HKLF 4




REM  ic-217d-eu_a.res in P2(1)/n
REM wR2 = 0.2549, GooF = S = 1.035, Restrained GooF = 1.035 for all data
REM R1 = 0.0916 for 4886 Fo > 4sig(Fo) and 0.1079 for all 6539 data
REM 429 parameters refined using 0 restraints

END

WGHT      0.1404     59.2732

REM Highest difference peak  3.886,  deepest hole -2.703,  1-sigma level  0.392
Q1    1   1.2400  0.4386  0.4566  11.00000  0.05    3.89
Q2    1   1.2422  0.4382  0.5449  11.00000  0.05    3.69
Q3    1   1.0059  0.5289  0.3142  11.00000  0.05    3.53
Q4    1   0.9928  0.4729  0.3146  11.00000  0.05    3.33
Q5    1   1.0466  0.6276  0.4621  11.00000  0.05    3.30
Q6    1   1.0504  0.6260  0.5359  11.00000  0.05    3.26
Q7    1   0.4461  0.6574  0.3042  11.00000  0.05    2.76
Q8    1   0.5572  0.3437  0.3038  11.00000  0.05    2.63
Q9    1   1.0463  0.7161  0.4927  11.00000  0.05    2.59
Q10   1   1.0142  0.4744  0.4045  11.00000  0.05    2.47
Q11   1   1.0518  0.7021  0.5381  11.00000  0.05    2.32
Q12   1   0.9986  0.5153  0.4129  11.00000  0.05    2.27
Q13   1   0.5623  0.3739  0.2467  11.00000  0.05    2.14
Q14   1   1.2507  0.5242  0.4989  11.00000  0.05    2.01
Q15   1   1.2400  0.5151  0.4692  11.00000  0.05    1.95
Q16   1   0.4346  0.6270  0.2449  11.00000  0.05    1.93
Q17   1   0.5633  0.2991  0.2350  11.00000  0.05    1.78
Q18   1   0.4383  0.7009  0.2467  11.00000  0.05    1.75
Q19   1   0.6813  0.2425  0.1933  11.00000  0.05    1.43
Q20   1   0.5753  0.1842  0.2945  11.00000  0.05    1.25
Q21   1   1.3163  0.2004  0.5532  11.00000  0.05    1.20
Q22   1   0.0948  0.6377  0.3064  11.00000  0.05    1.06
Q23   1   1.3116  0.2132  0.4376  11.00000  0.05    1.05
Q24   1   0.9531  0.4774  0.2032  11.00000  0.05    1.05
Q25   1   0.6943  0.3779  0.1514  11.00000  0.05    1.04
Q26   1   1.2784  0.2962  0.5423  11.00000  0.05    1.04
Q27   1   0.0966  0.7487  0.3069  11.00000  0.05    1.00
Q28   1   0.9527  0.5050  0.4537  11.00000  0.05    0.98
Q29   1   1.0382  0.5017  0.2613  11.00000  0.05    0.96
Q30   1   0.9115  0.4157  0.2935  11.00000  0.05    0.94
Q31   1   0.0573  0.5656  0.2823  11.00000  0.05    0.94
Q32   1   0.5015  0.4436  0.1241  11.00000  0.05    0.92
Q33   1   1.2604  0.2812  0.5943  11.00000  0.05    0.92
Q34   1   1.2614  0.2811  0.4013  11.00000  0.05    0.91
Q35   1   0.1169  0.6677  0.3666  11.00000  0.05    0.90
Q36   1   1.2586  0.2928  0.4575  11.00000  0.05    0.86
Q37   1   0.8963  0.2536  0.3019  11.00000  0.05    0.85
Q38   1   0.9114  0.2813  0.2504  11.00000  0.05    0.85
Q39   1   0.5399  0.3952  0.0801  11.00000  0.05    0.84
Q40   1   0.6549  0.1981  0.2531  11.00000  0.05    0.84
Q41   1   0.6433  0.2205  0.3006  11.00000  0.05    0.83
Q42   1   0.9311  0.3975  0.2851  11.00000  0.05    0.82
Q43   1   0.4608  0.5820  0.2003  11.00000  0.05    0.81
Q44   1   0.9608  0.5528  0.4602  11.00000  0.05    0.81
Q45   1   1.0014  0.3464  0.4013  11.00000  0.05    0.79
Q46   1  -0.0009  0.7019  0.3823  11.00000  0.05    0.79
Q47   1   1.1623  0.6496  0.5860  11.00000  0.05    0.78
Q48   1   0.8171  0.3864  0.1563  11.00000  0.05    0.78
Q49   1   0.9015  0.3488  0.3020  11.00000  0.05    0.76
Q50   1   0.4472  0.5978  0.1837  11.00000  0.05    0.75
Q51   1   0.4875  0.6426  0.1504  11.00000  0.05    0.74
;
_shelx_res_checksum                26404
_shelx_hkl_file
;
   0   0  -1    0.63    5.09
   0   0  -2  229.02   29.67
   0   0  -3  -11.90   15.73
   0   0  -4 6574.65  231.98
   0   0  -5   16.36   16.18
   0   0  -6 6249.72  230.89
   0   0  -7   -1.88   10.92
   0   0  -8 5931.70  222.67
   0   0  -9   63.72   21.04
   0   0 -10  544.37   56.44
   0   0 -11  -13.10   12.73
   0   0 -12 1162.13   84.08
   0   0  13  115.94   29.67
   0   0 -13   91.96   23.49
   0   0  14  528.70   58.45
   0   0 -14  598.48   58.85
   0   0 -14  595.54   58.75
   0   0 -15   37.04   15.77
   0   0  15   27.66   10.29
   0   0 -16  415.79   47.53
   0   0  16  317.54   44.74
   0   0 -17   39.12   15.93
   0   0  17   73.54   20.54
   0   0 -18   10.11    9.08
   0   0 -19    2.48    5.04
   0   0 -20   23.28    7.96
   0   0 -21   54.09   11.40
   0   0 -22   40.43    8.71
   0   0 -23    3.38    2.05
   0   1   0    0.55    1.29
   0  -1  -1 8433.51  219.76
   0  -1  -2    7.29   10.48
   0  -1  -3   31.54   11.56
   0  -1  -4   -4.74   14.37
   0  -1  -5 3816.67  163.30
   0  -1  -6    7.01   14.19
   0  -1  -7 2051.31  114.63
   0  -1  -8    1.79    8.53
   0  -1  -9 1275.66   87.46
   0  -1 -10   -5.39    8.69
   0  -1 -11  147.69   28.04
   0  -1 -12   30.82   16.16
   0  -1  13  407.04   50.69
   0  -1 -13  500.09   53.26
   0  -1  14   24.97   14.31
   0  -1 -14   16.44   10.59
   0  -1 -15  395.37   46.84
   0  -1  15  328.24   46.15
   0   1 -15  390.29   41.43
   0  -1  16   16.44   11.35
   0  -1 -16    5.26    8.29
   0   1 -16   19.18    6.58
   0  -1  17   63.42   20.21
   0  -1 -17   80.64   19.49
   0   1 -17   68.91   15.81
   0   1 -18    9.15    7.09
   0   1 -18    9.01    8.05
   0  -1 -18   -1.36    4.90
   0  -1 -19    3.50    5.70
   0   1 -19    1.31    4.94
   0   1 -19   -3.70    3.56
   0   1 -20    4.28    4.93
   0  -1 -20    7.58    4.93
   0   1 -21   57.31   12.44
   0  -1 -21   59.42   11.69
   0  -1 -22    5.60    3.94
   0   1 -22    3.03    3.18
   0  -1 -23   11.70    3.41
   0   1 -23   14.20    4.79
   0   2   0  546.82   25.60
   0   2   0  557.48   23.76
   0   2  -1   -1.90    3.77
   0  -2  -1    1.98    3.50
   0   2   1    3.86    2.58
   0   2  -2  235.87   25.55
   0  -2  -2  328.17   29.74
   0   2  -3   -2.42   14.41
   0  -2  -3    2.42   10.65
   0  -2  -4 2545.14  117.39
   0   2  -4 2423.63  115.99
   0   2  -5   -9.54   13.02
   0  -2  -5    7.79   14.63
   0  -2  -6 1359.91   87.38
   0   2  -6 1324.87   86.21
   0  -2  -7  -10.03    9.61
   0   2  -7    6.78   10.62
   0  -2  -8   43.98   19.04
   0   2  -8   44.57   19.63
   0  -2  -9  -11.95   10.92
   0   2  -9   -1.73   10.12
   0   2 -10   17.46    7.82
   0  -2 -10   43.08   19.61
   0   2 -11   -5.30    6.74
   0  -2 -11    1.74    9.68
   0   2 -12   31.86   16.40
   0  -2 -12   31.76   14.76
   0  -2  13    8.19   14.34
   0   2 -13    5.33    6.21
   0   2  13   -3.72    7.54
   0  -2 -13    1.78    8.53
   0   2  14  205.14   34.59
   0  -2  14  204.14   35.35
   0  -2 -14  279.85   39.07
   0   2 -14  276.78   39.23
   0   2 -14  274.93   34.88
   0  -2 -15   17.69    6.78
   0   2  15   37.17   15.49
   0   2 -15   21.16    9.80
   0  -2  15    6.14    8.90
   0   2 -15   18.07   10.61
   0  -2  16   58.28   19.61
   0   2  16   47.44   16.93
   0   2 -16   78.74   21.55
   0  -2 -16   54.55   18.06
   0   2 -16   77.69   17.75
   0   2  17   -1.95    5.65
   0  -2  17   -3.85    9.99
   0  -2 -17   -4.82    8.94
   0   2 -17   -3.17   10.21
   0   2 -17   -1.37    7.55
   0   2 -17   -1.72    9.32
   0  -2 -18   13.81    6.96
   0   2 -18    4.74    5.89
   0  -2 -19    1.03    4.52
   0   2 -19    5.45    6.39
   0   2 -19    1.95    4.06
   0   2 -20   -0.77    3.49
   0   2 -20   13.36    7.50
   0  -2 -20    7.21    5.97
   0   2 -21    2.29    2.03
   0   2 -21    8.46    5.03
   0  -2 -21   -1.81    3.78
   0   2 -22   24.62    7.40
   0   2 -23    3.56    3.11
   0   3   0    2.18    3.83
   0  -3  -1  329.92   13.49
   0   3  -1  294.83   12.53
   0  -3   1  300.66   14.52
   0  -3  -2    1.61    5.75
   0   3  -2    1.51    5.84
   0   3   2    0.88    3.87
   0  -3  -3  350.61   33.28
   0   3  -3  360.11   33.26
   0  -3  -4   -1.18    9.33
   0   3  -4    3.53    8.31
   0   3  -5  845.54   61.88
   0  -3  -5  859.00   61.43
   0  -3  -6    8.66    9.58
   0   3  -6    7.46    8.36
   0   3  -7 1185.97   78.57
   0  -3  -7 1210.18   78.98
   0  -3  -8   -1.55    7.57
   0   3  -8   -1.56    9.84
   0   3  -9  515.86   50.26
   0  -3  -9  480.68   48.75
   0   3 -10    4.82    8.17
   0  -3 -10   -3.23    7.50
   0  -3 -11   54.32   18.36
   0   3 -11   53.92   15.31
   0   3 -11   46.53   10.92
   0  -3  12   10.06   10.94
   0   3 -12    3.33    9.42
   0   3  12   17.40    9.37
   0  -3 -12   -3.36   10.27
   0   3 -12   24.55    9.24
   0  -3 -13   13.62    7.34
   0   3 -13   44.00   15.11
   0   3  13   32.38   14.52
   0  -3  13   20.29   13.63
   0   3 -13   25.57    8.26
   0   3  14   18.60    9.85
   0  -3  14   -2.03   13.67
   0   3 -14  -10.28   13.17
   0   3 -14   13.83    7.36
   0   3  15  129.91   27.55
   0  -3 -15  184.59   31.09
   0   3 -15  201.38   33.37
   0  -3  15  183.44   34.45
   0   3 -15  187.75   29.66
   0  -3 -16    1.64    5.91
   0   3  16   26.94   13.41
   0   3 -16   -1.64    5.16
   0  -3  16   11.72    6.63
   0   3 -16   16.20    8.89
   0   3 -16   13.73   11.08
   0  -3  17   92.49   22.29
   0   3 -17   82.12   19.61
   0  -3 -17   73.26   18.84
   0   3  17   53.09   18.55
   0   3 -17   69.20   20.38
   0   3 -17   96.43   20.51
   0  -3 -18   14.88    7.10
   0   3 -18   15.80   10.77
   0   3 -18    7.44    4.69
   0  -3 -19    9.65    6.06
   0   3 -19    4.13    9.14
   0   3 -19    3.05    4.85
   0   3 -20    3.99    2.62
   0   3 -20    5.52    5.73
   0   3 -21   11.61    5.66
   0   3 -21    8.31    2.97
   0   3 -22    1.17    3.09
   0   3 -22    5.33    2.88
   0   3 -23    7.02    3.14
   0   4   0 1557.01   60.38
   0   4   1    5.90    6.20
   0   4  -2  442.36   21.15
   0  -4   2  431.33   23.86
   0  -4  -2  471.96   22.13
   0   4  -3    7.43    7.17
   0  -4  -3    4.79    4.48
   0   4   3    0.48    3.83
   0  -4  -4 1785.50   79.12
   0   4  -4 1838.78   79.26
   0   4  -4 1796.47   72.64
   0   4  -5    3.23    9.85
   0  -4  -5    3.19    6.68
   0   4  -5    5.20    5.31
   0   4  -6  933.99   62.24
   0  -4  -6 1024.24   64.54
   0   4  -6 1020.90   53.23
   0   4  -7   26.59   10.77
   0  -4  -7   19.37   10.27
   0  -4  -8  321.56   35.61
   0   4  -8  278.37   35.35
   0   4  -8  243.20   25.45
   0   4  -9   10.07   11.87
   0  -4  -9   -1.41    9.55
   0   4  -9    6.07    6.13
   0   4 -10    5.88    5.58
   0  -4 -10   -4.37    7.00
   0   4 -10    5.42    8.26
   0   4  11    3.28   10.00
   0  -4  11    3.97    6.67
   0  -4 -11   -1.50    7.63
   0   4 -11   -9.01   11.64
   0   4 -11    3.76    5.36
   0  -4  12   42.09   18.00
   0   4  12   35.59   16.12
   0   4 -12   52.21   15.10
   0  -4 -12   92.54   20.03
   0   4 -12   90.32   15.93
   0  -4 -13   -4.72    7.26
   0  -4  13   -2.01    7.61
   0   4 -13   -4.71    6.44
   0   4  13    1.75    4.54
   0   4 -13    2.88    3.53
   0  -4 -14  184.40   30.55
   0   4  14  177.01   31.44
   0  -4  14  226.55   37.88
   0   4 -14  230.95   33.43
   0   4 -14  225.28   33.53
   0  -4 -15   20.34   10.88
   0   4 -15   17.21    8.87
   0   4  15   20.40   10.28
   0  -4  15   15.80   10.27
   0   4 -15   25.45   12.67
   0   4 -15    5.26    6.38
   0  -4  16  -13.27    9.71
   0   4 -16   -3.00    7.35
   0   4  16    1.88    5.61
   0  -4 -16    6.05    8.47
   0   4 -16    1.76    5.48
   0   4 -16   -1.57    6.56
   0   4  17   14.58    7.93
   0  -4  17   14.20    7.98
   0   4 -17   25.35   15.12
   0   4 -17    5.80    4.99
   0   4 -18   -1.27    5.12
   0   4 -18    1.54    5.25
   0   4 -19   10.49    5.54
   0   4 -19   -1.30    4.90
   0   4 -20    4.08    3.20
   0   4 -20    1.04    3.59
   0   4 -21   -4.80    4.19
   0   4 -21   -2.39    5.16
   0   4 -22   23.72    6.93
   0   4 -22   23.91    5.46
   0  -4  23   -0.91    2.92
   0   4  23    1.54    1.00
   0   4 -23    3.76    2.71
   0   5   0   -1.35    5.69
   0   5  -1 2757.86   98.70
   0   5   1 3146.07  102.21
   0   5   2    1.39    2.43
   0  -5  -2    5.11    2.34
   0  -5   2    7.30    3.16
   0   5  -2    1.18    1.44
   0   5  -2    7.84    5.12
   0   5   2    2.20    4.55
   0  -5  -3 1275.39   46.03
   0   5   3 1151.31   48.35
   0   5  -3 1228.29   44.54
   0  -5   3 1166.79   49.73
   0   5  -4   -0.58    3.70
   0  -5  -4    3.67    4.80
   0   5   4    2.88    3.43
   0   5  -5  465.35   34.30
   0  -5  -5  471.01   35.66
   0   5  -5  454.12   35.24
   0   5   5  448.69   30.13
   0  -5  -6    1.93    6.55
   0   5  -6    0.96    5.32
   0   5  -6    0.88    4.08
   0   5  -7 2333.11  101.04
   0  -5  -7 2512.68  103.12
   0   5  -7 2492.09   97.15
   0  -5  -8   15.06    8.22
   0   5  -8   17.55    6.28
   0   5  -8   18.50    9.94
   0   5   9  236.33   31.74
   0  -5  -9  269.36   31.70
   0  -5   9  258.54   38.18
   0   5  -9  285.42   33.13
   0   5  -9  274.59   28.37
   0  -5  10   -1.93    6.76
   0   5 -10    3.96    4.71
   0  -5 -10   -2.56    5.61
   0   5  10    1.51    9.15
   0   5 -10    4.87    4.25
   0  -5 -11   12.02    8.16
   0  -5  11   29.77   14.72
   0   5  11   23.63   13.33
   0   5 -11   39.34   12.02
   0   5 -11   33.34   10.51
   0   5 -12    1.39    8.03
   0  -5  12   14.04    9.64
   0   5  12   -6.53    7.91
   0  -5 -12   -1.38    7.81
   0   5 -12    2.05    3.59
   0   5  13  264.54   36.87
   0  -5 -13  297.93   35.40
   0  -5  13  262.94   39.17
   0   5 -13  324.05   37.84
   0   5 -13  280.24   29.99
   0   5 -13  312.84   38.73
   0   5  14    1.73    8.43
   0  -5 -14    2.83    5.93
   0  -5  14    3.98    7.57
   0   5 -14   10.03    8.79
   0   5 -14    6.30    5.83
   0  -5  15   36.92   17.38
   0   5 -15   55.92   16.54
   0  -5 -15   48.77   13.30
   0   5  15   47.73   16.35
   0   5 -15   57.75   18.38
   0  -5  16    5.50    5.27
   0  -5 -16   18.73   10.30
   0   5 -16   12.03    8.68
   0   5  16   15.72    9.20
   0   5 -16   19.94   11.01
   0   5 -16   -1.56    7.21
   0   5 -17   25.73   11.29
   0   5 -17   39.29   16.00
   0   5 -18    1.41    6.23
   0   5 -18   -3.77    6.48
   0   5 -19   -3.14    3.66
   0   5 -19   -2.40    7.31
   0   5 -20    1.61    5.89
   0   5 -20    2.91    6.18
   0   5 -21   25.73    6.98
   0   5 -21   37.60    9.93
   0   5 -22    0.38    2.57
   0   5 -22    4.23    2.53
   0   6   0 7151.88  205.02
   0   6   1    9.72    7.53
   0   6  -1    5.52    4.50
   0   6   2   59.44   13.61
   0   6  -2   59.00   12.06
   0  -6  -3    1.90    1.82
   0   6  -3    2.11    2.51
   0   6   3   -1.27    3.15
   0  -6   3    5.33    3.43
   0   6   3    4.09    3.71
   0   6  -3   -4.23    4.70
   0   6   4  899.35   42.62
   0  -6   4  847.04   43.64
   0   6  -4  852.83   37.06
   0  -6  -4  978.90   39.92
   0   6   4 1051.03   49.05
   0   6   5    0.70    3.69
   0  -6   5    9.20    6.03
   0   6  -5    0.57    3.07
   0  -6  -5    6.10    4.67
   0   6  -5    2.84    6.15
   0   6   5   -0.67    2.78
   0  -6   6  700.41   49.60
   0   6  -6  735.80   42.20
   0  -6  -6  812.06   45.31
   0   6   6  785.99   42.54
   0   6  -6  837.09   52.11
   0   6  -7   12.77    9.40
   0  -6  -7    3.58    4.90
   0  -6   7    3.87    7.33
   0   6   7    6.20    6.11
   0   6   7    4.00    3.47
   0   6  -7   18.89    6.76
   0  -6   8 2460.77  117.55
   0   6  -8 2437.12   98.62
   0  -6  -8 2642.90  103.28
   0   6   8 2612.71   91.16
   0   6  -8 2710.02  105.14
   0   6   9   -1.30    4.70
   0  -6   9  -13.43   10.35
   0  -6  -9    4.27    4.87
   0   6  -9    2.06    5.27
   0   6  -9    5.13    4.58
   0   6   9    8.92    4.96
   0   6  10    8.34    8.57
   0  -6 -10    7.89    6.11
   0  -6  10    1.82    9.36
   0   6 -10    1.10    6.53
   0   6 -10    8.42    7.83
   0   6  10    9.46    4.88
   0   6 -11   -1.17    5.57
   0   6  11    2.92    4.63
   0  -6  11    9.65   14.21
   0  -6 -11    4.72    5.37
   0   6 -11   10.74    8.39
   0   6  11    8.99    4.93
   0   6 -12  230.59   27.22
   0   6  12  278.61   26.41
   0  -6  12  204.77   35.29
   0   6  12  194.19   29.28
   0   6 -12  207.15   27.72
   0  -6 -12  233.91   29.42
   0   6 -12  226.87   30.39
   0   6 -12  224.84   31.50
   0  -6 -13   22.29   10.85
   0   6  13   33.13   14.55
   0  -6  13   46.19   18.68
   0   6 -13   15.02    7.64
   0   6  13   53.02   11.63
   0   6 -13    2.11    5.14
   0   6 -13   25.47   10.91
   0   6 -13   27.05    9.51
   0   6  14  286.41   26.88
   0   6 -14  243.90   30.81
   0   6  14  253.96   34.59
   0  -6  14  224.33   36.29
   0  -6 -14  243.85   30.75
   0   6 -14  283.17   36.41
   0   6 -14  254.69   35.22
   0   6  15   -3.19    9.22
   0  -6 -15   -1.21    4.44
   0   6 -15    2.42    6.01
   0  -6  15    5.66   12.85
   0   6 -15    3.11    4.35
   0  -6  16  141.13   28.26
   0   6  16  139.59   25.83
   0  -6 -16  130.08   21.54
   0   6 -16  130.24   21.23
   0   6 -16  134.44   26.37
   0   6 -17   23.53   10.30
   0   6 -18   -6.09    5.16
   0   6 -19   -4.33    6.49
   0   6 -19   -2.95    4.50
   0   6 -20   19.57    6.64
   0   6 -20   11.38    6.97
   0   6 -21    4.31    3.07
   0   6 -21    6.66    5.66
   0   6  22   15.03    4.45
   0   6 -22   22.52    5.50
   0   6 -22   23.62    4.98
   0   7   0   -1.83    4.92
   0   7   1 1100.61   59.69
   0   7  -1 1013.15   57.15
   0   7   2   -1.83    4.75
   0   7  -2    2.70    6.03
   0   7  -3   77.57   15.17
   0   7   3  129.70   17.94
   0   7   4    2.69    2.33
   0   7  -4    2.68    1.89
   0   7   4    0.76    3.36
   0  -7   5  484.83   32.44
   0   7   5  478.06   29.42
   0   7  -5  505.25   26.66
   0   7   6    1.35    3.35
   0   7  -6    0.54    2.26
   0  -7  -6   -1.20    2.70
   0  -7   6   -1.84    4.05
   0   7  -6   -1.04    4.29
   0   7   6    2.15    3.21
   0   7  -7 1112.64   51.92
   0  -7   7 1049.33   63.65
   0  -7  -7 1185.35   55.56
   0   7  -7 1204.07   66.17
   0   7   7 1160.89   55.24
   0   7   8   19.21    8.53
   0  -7  -8    2.54    5.09
   0   7  -8    9.85    7.26
   0  -7   8   10.98    6.62
   0   7   8   11.62    6.84
   0   7  -8   12.90    8.61
   0   7  -8   13.65    7.58
   0  -7   9  349.84   40.78
   0   7   9  304.22   31.79
   0   7  -9  319.08   28.81
   0  -7  -9  307.08   29.67
   0   7  -9  349.74   34.56
   0   7   9  325.31   27.76
   0   7  -9  335.75   34.02
   0   7 -10   -1.81    3.64
   0  -7  10  -10.40   11.70
   0  -7 -10    2.00    3.60
   0   7  10   -7.22    8.18
   0   7 -10   -2.18    6.14
   0   7  10   -3.17    4.12
   0   7 -10   -9.48    6.78
   0   7 -11    5.79    4.53
   0   7  11    6.43    3.38
   0  -7 -11    6.25    3.39
   0  -7  11   12.93    7.29
   0   7  11    4.89    3.10
   0   7 -11   14.25    9.65
   0   7 -12    7.09    5.83
   0  -7  12    5.73    5.66
   0  -7 -12   -1.07    5.10
   0   7  12   -1.34    4.64
   0   7 -12    9.99    6.88
   0   7  12    0.82    2.52
   0   7 -12   -3.81    6.61
   0   7 -12   -4.16    7.27
   0   7 -13  136.17   21.45
   0   7  13  174.75   20.85
   0   7  13  137.02   23.83
   0   7 -13  148.79   21.56
   0   7 -13  156.71   24.96
   0   7 -13  195.95   29.08
   0   7  14   20.71    9.23
   0   7 -14    7.27    4.82
   0   7  14   15.44    6.49
   0   7 -14   31.00   12.35
   0   7 -14   11.74    7.70
   0   7  15  110.09   21.67
   0   7 -15  159.91   22.20
   0   7 -15  215.75   30.02
   0   7 -15  193.54   30.13
   0   7 -16    2.60    4.97
   0   7 -16   -2.80    8.81
   0   7 -17    1.22    4.17
   0   7 -17    1.29    4.51
   0   7 -18    3.32    3.37
   0   7 -19    3.59    5.00
   0   7 -20    0.69    2.64
   0   7  21   11.11    4.00
   0   7 -21   22.22    6.11
   0   7 -22    4.64    2.82
   0   7 -22   -5.25    3.24
   0   8   0   -3.11    8.10
   0   8   1    2.14    4.30
   0   8  -1   -4.04    4.25
   0   8  -2   84.59   16.30
   0   8   2   80.79   16.64
   0   8  -3    7.02    6.46
   0   8   4  567.80   39.27
   0   8  -5    3.81    5.86
   0   8   5   -0.83    3.82
   0   8   6   13.73    5.47
   0   8  -6   16.38    8.23
   0   8  -6   21.02    8.90
   0   8  -7    2.21    4.81
   0   8  -7    4.85    4.14
   0   8   7    1.55    2.85
   0   8   8  159.89   18.90
   0   8  -8  174.66   17.40
   0   8   8  210.50   22.59
   0   8  -8  233.15   28.11
   0   8  -8  241.41   30.03
   0   8   9    5.09    5.25
   0   8  -9    8.63    5.31
   0   8   9   -0.80    3.83
   0   8  -9  -11.63    8.64
   0   8  -9   -1.11    4.08
   0   8 -10  108.55   15.93
   0   8  10   85.03   15.82
   0   8 -10  115.72   19.62
   0   8 -10  115.16   19.26
   0   8  10  119.63   17.19
   0   8  11    7.51    4.85
   0   8 -11    3.36    7.67
   0   8 -11   -3.89    8.16
   0   8 -11    1.28    4.57
   0   8 -11   12.84    8.29
   0   8  12   29.26    8.80
   0   8 -12   32.87   11.22
   0   8 -12   10.77    5.33
   0   8 -13    4.42    4.46
   0   8  13    4.20    4.75
   0   8 -13   -3.61    5.76
   0   8 -14    8.35    5.11
   0   8 -14   25.57    7.31
   0   8 -15    4.67    5.08
   0   8 -15    1.33    7.02
   0   8 -16   10.13    5.96
   0   8 -16    3.78    4.21
   0   8 -17    5.68    4.15
   0   8 -17    7.35    6.80
   0   8 -18   45.71   11.53
   0   8 -18   45.06   11.81
   0   8 -19    0.80    4.26
   0   8 -19   -0.80    2.52
   0   8 -20   11.65    4.73
   0   8 -20    1.23    2.79
   0   8 -21    0.44    1.92
   0   9   0   -2.35    5.74
   0   9   1  293.66   33.52
   0   9  -1  276.61   30.08
   0   9  -1  247.71   32.47
   0   9   2    3.34    6.24
   0   9  -2    1.09    3.70
   0   9  -3 1021.74   61.54
   0   9  -3 1151.24   72.78
   0   9  -4    3.30    3.99
   0   9  -4   -1.36    7.56
   0   9  -5 1430.26   80.22
   0   9  -6    1.28    7.51
   0   9   6    2.55    4.87
   0   9  -7   46.57   13.31
   0   9  -7   45.95   13.50
   0   9   7   43.37   11.13
   0   9  -8   10.35    4.29
   0   9  -8    8.67    8.43
   0   9   8    4.17    4.49
   0   9  -9  304.32   32.49
   0   9   9  330.99   29.48
   0   9  -9  307.38   35.96
   0   9  -9  364.18   36.31
   0   9  10    2.61    4.76
   0   9 -10   -3.41    6.28
   0   9 -10    3.40    4.35
   0   9 -10   -5.37    6.35
   0   9 -10    4.35    7.09
   0   9 -10    1.19    6.22
   0   9 -11  211.84   27.28
   0   9  11  257.79   26.22
   0   9 -11  229.78   28.12
   0   9 -11  261.31   31.49
   0   9 -12   24.97   10.25
   0   9  12   17.50    5.86
   0   9 -12   14.45    8.72
   0   9 -12    4.88    4.41
   0   9 -13   79.22   16.83
   0   9  13   72.48   13.54
   0   9 -13   65.51   14.72
   0   9 -14    2.13    2.80
   0   9 -15    4.08    2.98
   0   9 -16    6.55    3.82
   0   9 -16    4.78    4.22
   0   9 -17   94.62   16.06
   0   9 -17   80.38   15.92
   0   9 -18    3.37    3.53
   0   9 -18    7.74    7.13
   0   9 -19    3.29    2.97
   0   9 -19    6.89    4.03
   0   9 -20    3.70    2.79
   0   9 -20   -1.07    2.71
   0   9 -21   -0.81    2.06
   0   9 -21    1.51    2.10
   0  10   0  245.94   31.34
   0  10   0  266.92   33.36
   0  10  -1    9.88    7.66
   0  10   1    5.20    6.02
   0  10  -1   -2.78   10.03
   0  10   1    3.97    6.42
   0  10  -2  224.32   28.77
   0  10   2  249.47   29.94
   0  10   2  244.65   29.96
   0  10  -3   10.51    8.70
   0  10   3   17.45    8.46
   0  10  -4 1943.87   92.24
   0  10   4 1889.11   83.97
   0  10  -4 2164.07  102.59
   0  10  -5   -2.68    6.01
   0  10  -6   15.72    8.48
   0  10  -7   10.32    9.43
   0  10  -7    4.75    4.40
   0  10  -8  133.24   23.33
   0  10  -8  128.67   21.54
   0  10   8  120.06   17.91
   0  10  -8   98.65   17.68
   0  10   9    0.88    3.37
   0  10  -9    2.43    4.41
   0  10  -9   -3.50    5.49
   0  10  -9   -1.12    5.10
   0  10  -9    9.65    6.24
   0  10  -9    5.65    7.07
   0  10  -9    8.96    4.50
   0  10  10  221.56   24.75
   0  10 -10  208.03   26.43
   0  10 -10  216.41   29.39
   0  10 -10  210.83   25.65
   0  10 -10  199.76   26.47
   0  10 -10  261.40   30.41
   0  10 -10  220.18   26.26
   0  10  11    7.09    6.32
   0  10 -11   -6.81    7.25
   0  10 -11    7.83    5.25
   0  10 -11   -1.02    3.36
   0  10 -11    1.14    4.82
   0  10 -12  248.96   28.58
   0  10  12  275.07   26.79
   0  10 -12  239.92   27.89
   0  10 -12  260.52   30.08
   0  10 -13    1.07    4.44
   0  10 -13    2.93    4.28
   0  10 -13    7.80    5.73
   0  10 -14    2.78    5.54
   0  10 -14    8.55    5.64
   0  10 -15    0.87    3.77
   0  10 -16   41.75   10.25
   0  10 -17   13.02    5.42
   0  10 -17    5.79    3.40
   0  10 -18   16.97    6.92
   0  10 -18    6.96    4.42
   0  10 -19    0.53    1.86
   0  10 -19    0.58    2.74
   0  10 -20    7.93    3.82
   0  10 -20   11.05    3.94
   0  11   0   -9.32   10.37
   0  11   0   -1.39    5.75
   0  11   1   41.00   13.59
   0  11  -1   59.37   17.29
   0  11  -1   48.62   14.83
   0  11   1   41.63   13.80
   0  11   2  -14.32    9.40
   0  11  -2   11.56    8.50
   0  11  -2    6.75    8.48
   0  11  -3  453.90   41.62
   0  11   3  491.98   40.74
   0  11  -4   -3.70    7.04
   0  11  -4    1.38    8.63
   0  11   4    0.96    3.60
   0  11  -5   76.26   17.02
   0  11  -5   67.30   16.31
   0  11  -6    1.32    5.33
   0  11  -6    7.50    5.71
   0  11  -6   -5.06    4.84
   0  11  -7    1.30    7.32
   0  11  -7    1.22    5.17
   0  11   7    9.19    5.96
   0  11  -7   -0.80    3.83
   0  11  -7   -1.28    5.61
   0  11  -7    1.12    4.03
   0  11  -7    0.94    4.70
   0  11  -7   -2.44    7.22
   0  11  -8    5.05    6.08
   0  11  -8   -8.41    8.04
   0  11  -8   11.22    8.24
   0  11   8   -3.43    8.15
   0  11  -8    5.54    4.71
   0  11  -8    9.12    7.47
   0  11  -8   -3.53    6.40
   0  11  -8    3.07    4.20
   0  11  -9   -3.53    6.94
   0  11  -9   -1.21    3.98
   0  11   9   -2.23    3.81
   0  11  -9   -1.13    8.31
   0  11  -9   14.94    8.20
   0  11  -9   -0.87    4.51
   0  11 -10   -2.26    5.81
   0  11 -10    1.15    6.61
   0  11 -10    4.24    4.88
   0  11 -10    1.08    4.27
   0  11 -10    8.21    5.58
   0  11 -11  275.54   30.65
   0  11 -11  254.44   26.54
   0  11 -11  257.62   28.07
   0  11 -11  261.11   29.60
   0  11 -12   -1.07    4.98
   0  11 -12    2.07    4.21
   0  11 -12    1.81    4.56
   0  11 -13   19.70    8.84
   0  11 -13   16.38    6.66
   0  11 -14    6.46    3.91
   0  11 -14    1.62    2.92
   0  11 -15    5.20    4.15
   0  11 -15   -1.71    3.83
   0  11 -16    0.67    3.03
   0  11 -17    9.48    4.42
   0  11 -18   -1.02    3.17
   0  11 -19    7.92    3.39
   0  11 -19    7.47    3.24
   0  12   0  247.86   31.98
   0  12   0  185.73   24.72
   0  12   0  196.32   26.40
   0  12   0  234.39   30.01
   0  12   1    4.91    9.14
   0  12  -1   -7.75   11.04
   0  12  -1   -5.57    6.86
   0  12   1    1.12    3.95
   0  12  -1    1.24    4.85
   0  12  -2   33.87   11.19
   0  12  -2   18.12    8.49
   0  12   2   27.65   11.33
   0  12  -2   38.19   12.54
   0  12   2   35.68   10.94
   0  12  -2   21.44   10.61
   0  12   3   -1.06    5.50
   0  12  -3    2.64    5.26
   0  12   3    0.77    3.88
   0  12  -3   -0.99    5.83
   0  12   3   -3.37    4.33
   0  12  -3   -7.53    7.31
   0  12   4   13.36    5.05
   0  12  -4   22.00   10.04
   0  12  -4   14.46   10.29
   0  12  -4   31.15    9.99
   0  12  -4   20.22    9.19
   0  12   4   13.67    6.08
   0  12   4    2.22    4.94
   0  12  -5    3.82    6.62
   0  12  -5   -5.30    8.55
   0  12  -5    4.43    4.77
   0  12   5    6.62    6.75
   0  12  -5    1.06    4.95
   0  12  -5   -6.31    5.52
   0  12  -5   -3.66    7.89
   0  12  -6   18.21    9.46
   0  12  -6   23.75    9.47
   0  12  -6    6.02    4.84
   0  12  -6   19.61    7.90
   0  12   6    6.64    4.92
   0  12  -6   10.95    9.46
   0  12  -6    3.19    2.22
   0  12  -7    6.18    3.81
   0  12  -7   -5.09    7.61
   0  12   7    1.11    5.36
   0  12  -7   -1.09    4.13
   0  12  -7    2.48    6.56
   0  12  -7   -9.65    5.13
   0  12  -7   12.02    9.26
   0  12  -7   -1.77    3.45
   0  12  -8  126.35   20.93
   0  12  -8  163.28   23.16
   0  12   8  170.16   24.14
   0  12  -8  189.82   26.70
   0  12  -8  155.92   23.58
   0  12  -8  152.38   21.02
   0  12  -9   10.49    7.11
   0  12  -9    3.49    5.95
   0  12   9   -3.15    7.33
   0  12  -9   -3.01    7.79
   0  12  -9    2.20    5.84
   0  12 -10   22.44    7.87
   0  12 -10   22.54    9.07
   0  12 -10   11.09    5.75
   0  12 -10   29.64    7.96
   0  12 -11    3.89    3.11
   0  12 -11    8.36    4.37
   0  12 -11    1.65    3.08
   0  12 -12    7.22    4.32
   0  12 -12   -1.84    5.62
   0  12 -12   11.24    6.18
   0  12 -13   -2.57    6.35
   0  12 -13    0.76    4.48
   0  12 -14   40.04   10.04
   0  12 -14   46.00    9.86
   0  12 -15   -1.88    2.60
   0  12 -15   -0.71    2.37
   0  12 -16   -0.63    3.82
   0  12 -16    3.86    3.89
   0  12 -17   -1.65    3.16
   0  12 -17    4.26    2.61
   0  12 -18   -0.39    1.96
   0  12  19    3.65    2.44
   0  12 -19   -0.60    1.74
   0  13   0    6.01    4.07
   0  13   0   -1.53    4.94
   0  13   0   -3.51    3.64
   0  13  -1   41.85   13.21
   0  13   1   82.46   16.47
   0  13  -1   99.94   18.84
   0  13   1   65.18   14.75
   0  13   1   61.30   11.55
   0  13  -1   66.86   12.43
   0  13   1   71.06   15.88
   0  13  -1   93.67   19.55
   0  13  -2   10.99    5.72
   0  13   2    2.19    6.19
   0  13  -2    4.08    3.28
   0  13   2   -1.09    5.82
   0  13   2    5.11    3.68
   0  13  -2    3.03    2.99
   0  13  -2    2.73    3.81
   0  13  -2   -2.45    4.65
   0  13   2    3.24    6.65
   0  13  -2    4.84    4.68
   0  13  -3    1.34    3.80
   0  13   3   -5.07    5.61
   0  13   3    4.28    4.41
   0  13   3    7.37    5.22
   0  13  -3    7.64    5.37
   0  13  -3   12.74    7.60
   0  13   3    3.13    4.82
   0  13  -3    1.20    5.99
   0  13  -4   10.57    7.40
   0  13   4    4.65    5.01
   0  13   4    6.08    3.41
   0  13   4   -3.17    6.54
   0  13  -4   -1.88    5.87
   0  13  -4  -15.88    7.32
   0  13  -4    7.59    6.31
   0  13   4    8.13    6.34
   0  13  -5   11.76    7.58
   0  13  -5   21.44    9.58
   0  13   5   22.04    8.88
   0  13  -5    7.18    6.73
   0  13  -5    6.32    6.61
   0  13   5   19.01    7.51
   0  13  -5   16.71    7.46
   0  13  -5   30.17   11.69
   0  13  -6    1.25    4.67
   0  13  -6   -4.34    4.87
   0  13   6   -8.36   10.15
   0  13  -6    1.01    4.42
   0  13   6    5.66    4.56
   0  13  -6    1.15    7.95
   0  13  -6   -0.75    3.86
   0  13  -7   80.53   17.37
   0  13   7   69.29   14.19
   0  13  -7   59.33   14.16
   0  13  -7   86.58   15.10
   0  13  -7   77.45   17.09
   0  13  -7   72.43   13.27
   0  13  -8   -6.91    6.04
   0  13  -8    8.35    7.01
   0  13   8    2.01    3.27
   0  13  -8   -7.70    6.06
   0  13  -8    1.77    5.43
   0  13  -9   21.66    8.99
   0  13   9   40.00   10.81
   0  13  -9   15.38    7.11
   0  13  -9   22.75    7.28
   0  13  10   -1.74    2.90
   0  13 -10   11.50    8.24
   0  13 -10    5.37    5.19
   0  13 -11   35.17    9.75
   0  13 -11   42.00   10.26
   0  13 -12    2.08    2.85
   0  13 -12   -5.73    4.69
   0  13 -12    3.19    3.35
   0  13 -13   10.96    5.03
   0  13 -13    8.75    5.50
   0  13 -14    2.32    3.17
   0  13 -14    3.28    3.47
   0  13 -15   10.11    3.66
   0  13 -15   18.52    6.10
   0  13 -16    0.86    1.60
   0  13 -16    3.02    2.69
   0  13  17    2.82    2.83
   0  13 -17    1.04    1.68
   0  13 -17    3.83    2.65
   0  13  18   -1.24    1.28
   0  13 -18    1.04    1.46
   0  13 -18    1.03    1.44
   0  14   0   14.46    8.26
   0  14   0   18.39    6.41
   0  14   0   -1.01    7.48
   0  14   0   21.30    8.20
   0  14  -1    3.38    5.97
   0  14   1   -5.38    5.35
   0  14   1    1.02    3.86
   0  14  -1    4.75    4.32
   0  14   1    9.55    6.32
   0  14   1    5.45    5.83
   0  14  -1    2.28    4.04
   0  14   2   34.69   11.34
   0  14  -2   30.48   11.64
   0  14  -2   32.76   10.99
   0  14  -2   23.57    6.52
   0  14   2   21.45    7.26
   0  14   2   30.04    9.15
   0  14  -2   38.71   10.93
   0  14  -2   39.92   11.62
   0  14   2   43.22   11.85
   0  14  -3   11.26    7.15
   0  14   3    1.90    3.40
   0  14  -3   -9.03    8.55
   0  14   3    0.99    4.03
   0  14  -3    9.42    5.63
   0  14   3    0.71    1.94
   0  14  -3    5.63    3.60
   0  14   3   -2.05    6.63
   0  14  -4  161.85   25.30
   0  14   4  169.23   19.06
   0  14   4  184.52   23.31
   0  14  -4  160.90   20.93
   0  14   4  184.49   23.34
   0  14   4  196.12   22.95
   0  14  -5    3.77    5.67
   0  14  -5   -3.42    4.68
   0  14  -5    8.82    4.71
   0  14   5    1.47    3.36
   0  14   5    5.83    4.63
   0  14  -5    4.32    5.21
   0  14  -6   25.18    9.56
   0  14  -6   18.49    8.66
   0  14   6   22.67    7.86
   0  14  -6   17.78    7.31
   0  14   6   23.00    8.90
   0  14  -6   10.67    5.74
   0  14  -7   -3.29    5.31
   0  14   7    0.73    3.34
   0  14  -7   -4.87    4.52
   0  14   7    1.87    3.44
   0  14  -7   -6.37    5.18
   0  14  -7    8.76    4.92
   0  14   8    2.95    2.94
   0  14   8   12.55    6.38
   0  14  -8    4.62    4.19
   0  14  -8    1.01    6.76
   0  14   9    3.68    5.29
   0  14   9    9.18    5.88
   0  14  -9    0.79    2.89
   0  14  -9   -0.94    5.60
   0  14  10  148.23   18.16
   0  14  10  163.32   19.37
   0  14 -10  126.83   16.92
   0  14 -10  108.17   16.55
   0  14 -11    1.47    2.28
   0  14 -11   -0.75    3.11
   0  14 -12   24.21    6.90
   0  14 -12   27.26    7.42
   0  14  13   -2.42    4.27
   0  14 -13   -2.41    2.29
   0  14 -14    0.53    2.09
   0  14 -15    2.74    3.34
   0  14 -16    3.08    2.47
   0  14  17    3.41    1.62
   0  14 -17    1.88    2.25
   0  15   0   11.03    6.05
   0  15   0   -2.94    3.37
   0  15   0   -2.79    4.67
   0  15   0   -6.28    7.85
   0  15   1  183.85   22.74
   0  15  -1  174.76   19.70
   0  15   1  164.46   18.64
   0  15   1  194.53   24.92
   0  15   1  213.72   24.85
   0  15  -1  199.12   25.10
   0  15  -1  168.07   23.40
   0  15   2   -5.55    6.20
   0  15  -2    1.02    5.72
   0  15   2    7.24    3.92
   0  15   2    7.60    4.92
   0  15   2    2.00    5.23
   0  15  -2   -3.16    5.59
   0  15  -3  337.35   29.87
   0  15   3  289.71   24.89
   0  15   3  323.94   30.19
   0  15   3  307.63   30.42
   0  15  -3  354.41   33.50
   0  15  -3  313.29   31.29
   0  15   4    9.39    5.54
   0  15   4    7.11    4.47
   0  15  -4    1.72    3.67
   0  15  -4    8.09    8.61
   0  15   4   10.54    6.36
   0  15  -5  358.87   30.41
   0  15   5  417.95   33.55
   0  15   5  342.11   26.84
   0  15  -5  398.21   35.32
   0  15  -6    6.97    7.68
   0  15   6    5.11    4.92
   0  15   6    6.52    3.99
   0  15  -6   -2.39    4.76
   0  15  -6   -4.80    7.78
   0  15   7   23.17    7.01
   0  15   7   30.32    8.45
   0  15  -7   13.94    6.42
   0  15   8    3.81    4.35
   0  15   8    2.31    4.81
   0  15  -8    5.20    3.62
   0  15   9  218.63   21.39
   0  15   9  215.44   20.09
   0  15  -9  150.81   17.28
   0  15  -9  192.87   22.10
   0  15  10    1.85    3.55
   0  15  10   -1.20    2.32
   0  15 -10    3.63    4.95
   0  15 -10   -1.91    2.13
   0  15  11  150.08   16.00
   0  15 -11  122.28   15.11
   0  15 -11  112.74   14.32
   0  15  12    4.17    3.40
   0  15 -12    0.54    2.50
   0  15 -12    4.35    3.95
   0  15  13   74.18   10.04
   0  15 -13   55.76    8.95
   0  15  14   -0.40    1.31
   0  15 -14   -0.81    1.77
   0  15  15    3.91    1.79
   0  15 -15   -0.34    1.34
   0  15 -16    0.27    1.18
   0  16   0  130.72   18.26
   0  16   0  106.92   14.73
   0  16   0  120.35   18.60
   0  16  -1   -1.78    5.55
   0  16   1   -4.59    3.95
   0  16  -1    2.59    2.66
   0  16   1    4.04    4.61
   0  16   1    7.45    4.09
   0  16  -1   14.28    7.14
   0  16   2  139.48   16.50
   0  16   2  132.17   17.97
   0  16   2  150.27   20.35
   0  16  -2  144.62   19.71
   0  16  -2  140.75   20.34
   0  16  -3    1.59    3.34
   0  16   3    3.14    3.44
   0  16   3   -0.79    5.40
   0  16   3    7.92    4.78
   0  16  -3   12.95    8.13
   0  16   4  388.85   30.71
   0  16   4  354.13   26.38
   0  16  -4  394.38   30.96
   0  16   4  376.70   31.45
   0  16  -4  340.22   30.73
   0  16   5    6.49    3.82
   0  16   5    6.08    3.23
   0  16  -5    8.21    5.89
   0  16   6   71.69   12.81
   0  16   6   60.40   10.34
   0  16  -6   80.14   14.83
   0  16   7    2.21    2.31
   0  16   7    0.69    3.25
   0  16  -7    0.79    3.59
   0  16   8   92.62   12.14
   0  16   8  109.62   14.54
   0  16  -8   65.16   12.19
   0  16   9    5.09    3.01
   0  16   9   -0.57    3.72
   0  16  -9    5.97    4.43
   0  16  10  111.62   12.71
   0  16  10  123.79   13.27
   0  16 -10   87.57   11.34
   0  16 -10   94.45   13.02
   0  16  11    0.88    2.58
   0  16 -11    5.37    3.99
   0  16 -11    4.24    3.49
   0  16  12  107.77   11.28
   0  16 -12   88.59   10.52
   0  16 -12   76.10    9.16
   0  16  13   -1.03    1.37
   0  16 -13    1.01    1.61
   0  16  14    1.13    0.96
   0  16 -14    2.20    1.80
   0  17   0   -2.11    2.69
   0  17   0   -1.08    2.14
   0  17   0   -1.64    3.89
   0  17   1   15.83    5.20
   0  17   1   21.38    7.18
   0  17  -1   20.67    8.15
   0  17   1   14.36    6.78
   0  17   2   11.56    5.79
   0  17   2    8.21    4.35
   0  17   2   -3.83    4.81
   0  17  -2    3.27    3.14
   0  17   3  102.02   14.66
   0  17  -3   97.83   14.21
   0  17   3   79.17   11.32
   0  17   3   83.66   13.91
   0  17  -3  109.18   16.17
   0  17  -4   -2.00    3.89
   0  17   4    3.68    3.37
   0  17   4   -1.32    3.25
   0  17  -4    2.31    3.30
   0  17   4    1.38    2.92
   0  17   5   53.16    8.95
   0  17   5   58.62   11.08
   0  17   6   -0.60    3.72
   0  17   6    2.87    2.27
   0  17   7   29.67    6.58
   0  17   7   26.91    7.16
   0  17  -7   33.88    8.17
   0  17   8   -0.43    1.93
   0  17   8    5.51    3.93
   0  17  -8    2.31    3.72
   0  17   9    8.91    3.54
   0  17   9    4.32    2.71
   0  17  -9    7.14    3.95
   0  17  10   -3.35    2.64
   0  17 -10    1.29    2.21
   0  17  11   64.37    8.03
   0  17 -11   59.48    8.06
   0  17  12    0.87    1.48
   0  17  13    7.63    2.04
   0  18   0    5.20    3.52
   0  18   0    6.49    3.45
   0  18   1   -0.57    2.95
   0  18  -1    4.63    4.45
   0  18   1   -2.50    3.62
   0  18   2   11.22    4.46
   0  18   2    9.82    3.73
   0  18   2    9.50    4.34
   0  18  -2   13.16    6.63
   0  18   3   -4.95    4.23
   0  18  -3    0.57    4.15
   0  18   3    2.44    1.79
   0  18  -3   -3.84    4.16
   0  18   3   -1.12    3.67
   0  18   4   24.53    6.41
   0  18   4   13.99    4.26
   0  18  -4   11.53    4.02
   0  18   4   14.93    5.08
   0  18   5   -3.05    2.78
   0  18   5    1.17    1.84
   0  18   6    5.17    2.57
   0  18   6   10.15    3.70
   0  18   7    4.23    2.87
   0  18   7   -1.06    1.46
   0  18  -7    6.19    2.26
   0  18   8    0.66    1.19
   0  18  -8    1.71    2.00
   0  18   9   -3.04    2.18
   0  18   9    4.24    2.17
   0  18  -9   -2.22    2.42
   0  18  10    5.67    1.98
   0  18 -10    4.47    2.13
   0  18  11   -2.31    1.44
   0  19   0   -1.80    2.24
   0  19   0   -0.48    2.03
   0  19   1    9.77    3.13
   0  19   1    3.67    3.50
   0  19  -1    0.49    2.78
   0  19   2    3.05    3.06
   0  19  -2    2.95    3.07
   0  19   2    3.43    3.51
   0  19   3    8.04    3.79
   0  19  -3   -0.48    3.11
   0  19   4    2.02    1.72
   0  19   4    0.25    0.90
   0  19  -4   -1.35    3.54
   0  19   5    3.02    1.64
   0  19   5    1.52    2.12
   0  19   6    0.34    3.07
   0  19   6   -0.24    0.95
   0  19   7    1.49    1.77
   0  19   7    3.89    2.00
   0  19  -7   -1.02    1.97
   0  19   8    2.10    1.47
   0  19   8    0.97    1.10
   0  19  -8   -0.29    1.33
   0  20   0    7.46    3.02
   0  20   1    4.22    2.67
   0  20  -1    0.34    1.93
   0  20  -2   -0.67    2.13
   0  20  -3   -1.30    1.88
   0  20  -4    8.25    3.16
   1   0 -23    2.32    2.64
   1   0 -22   14.51    4.86
   1   0 -21   26.97    9.55
   1   0 -20   16.36    9.56
   1   0 -19    9.59    6.42
   1   0 -18   -1.12    4.27
   1   0 -17   -4.93   10.48
  -1   0  17    1.94    9.45
   1   0 -17   17.55    9.88
   1   0 -16   50.36   16.43
  -1   0  16   30.29   17.80
   1   0 -16   18.20   10.56
  -1   0  15  410.57   50.84
   1   0 -15  542.70   55.19
   1   0 -15  449.68   48.94
   1   0 -14   37.63   12.55
   1   0 -14   71.16   19.29
   1   0 -13   77.06   20.86
   1   0 -12   14.29    8.99
   1   0 -11  135.22   26.20
   1   0 -10   39.00   17.65
   1   0 -10   29.93    6.76
   1   0  -9    3.55    7.94
   1   0  -8    1.76    8.53
   1   0  -7 3148.58  143.71
   1   0  -6   51.11   16.18
   1   0  -5  120.86   24.22
   1   0  -4   28.13   12.24
   1   0  -4    5.48    2.33
   1   0  -3   84.37   12.46
   1   0  -3   91.08    6.57
   1   0  -2   -0.82    3.94
   1   0  -1 7571.25  186.65
  -1   0   0    0.25    2.22
  -1   0  -1 5947.68  145.18
  -1   0  -2    3.40    3.90
  -1   0  -3  100.35   14.85
  -1   0  -4   25.60    9.45
  -1   0  -5  144.54   27.46
   1   0   6   19.84    9.86
   1   0   7 3691.30  181.24
  -1   0  -7 4243.69  190.63
  -1   0  -8   14.62   17.45
   1   0   8   49.78   21.35
  -1   0  -9    7.29   16.56
   1   0   9   16.84   15.66
  -1   0 -10   11.86   10.49
   1   0  10   19.26   12.06
   1   0  11  157.78   33.11
  -1   0 -11  146.47   32.26
   1   0  12   21.30   17.84
  -1   0 -12   13.20   17.08
  -1   0 -13  103.69   23.70
   1   0  13   82.01   24.90
  -1   0 -14   22.27   14.60
   1   0  14   18.52    9.24
  -1   0 -15  595.11   59.25
   1   0  15  517.07   60.48
  -1   0 -16   16.10   11.56
   1   0  16   45.68   17.41
  -1   0 -16   25.11   10.39
   1   0  17    2.05    6.90
  -1   0 -17   13.10    9.23
  -1   0 -17   15.93   10.24
  -1   0 -18   -1.29    6.69
  -1   0 -19    3.33    5.08
  -1   0 -20   12.75    5.12
  -1   0 -21    4.24    4.79
  -1   0 -22    7.52    4.50
   1   0  23    3.43    1.28
  -1   0 -23    0.98    1.45
   1  -1 -23   -2.44    3.05
   1   1 -23    1.19    2.22
   1   1 -22   20.73    6.77
   1  -1 -22   24.83    6.94
   1   1 -21   11.32    5.10
   1  -1 -21    7.95    4.89
   1   1 -21    1.66    6.25
   1  -1 -20    2.07    4.87
   1   1 -20   16.15    5.74
   1   1 -20    8.82    7.35
   1   1 -19   -2.07    5.68
   1   1 -19    9.70    8.40
   1   1 -18   15.73    9.04
   1  -1 -17    3.20    5.65
  -1  -1  17    3.76    7.55
   1   1 -17    5.44    7.66
   1  -1 -16   31.82   12.07
  -1  -1  16   25.36   13.60
   1  -1 -16   20.62    9.21
   1   1 -16   41.26   14.38
   1  -1 -15   51.73   15.01
  -1  -1  15   33.79   12.89
   1  -1 -15   34.84   14.48
   1  -1 -14  413.08   47.15
   1  -1 -14  348.14   43.83
   1  -1 -13   18.89   12.08
   1  -1 -12   33.94   12.91
   1  -1 -11   15.02   12.20
   1  -1 -10   16.47   11.98
   1   1 -10   13.53    5.17
   1  -1  -9   14.61   11.00
   1   1  -9   16.74    6.05
   1  -1  -8  249.71   35.12
   1   1  -8  323.59   24.94
   1  -1  -7   25.70   14.86
   1   1  -7   23.99    7.31
   1  -1  -6 1084.22   74.63
   1   1  -6 1514.00   56.52
   1  -1  -5   73.42   16.99
   1   1  -5   91.43   11.69
   1  -1  -4  893.54   51.12
   1  -1  -4  881.17   48.68
   1   1  -4  793.75   34.53
   1  -1  -3  126.92   14.30
   1  -1  -3  116.42   14.43
   1   1  -3  109.87   11.19
   1  -1  -2 2107.63   66.31
   1  -1  -2 2244.57   66.06
   1  -1  -1  111.20   10.52
  -1  -1   0 2052.75   58.52
   1  -1   1   70.16    7.87
  -1  -1  -1   87.43    7.75
  -1   1  -1   83.01    5.74
   1  -1   2 2188.45   77.26
  -1  -1  -2 2219.42   68.50
   1   1   2 2140.18   56.37
  -1  -1  -3  118.30   14.98
   1  -1   3  113.43   17.46
   1  -1   4  761.53   53.22
  -1  -1  -4  941.77   54.00
  -1  -1  -5  116.76   24.30
   1  -1   5   92.37   24.06
   1  -1   6 1333.37   91.41
   1  -1   7   13.01   11.62
  -1  -1  -7   30.24   17.18
   1  -1   8  308.70   48.38
  -1  -1  -8  354.90   51.19
   1  -1   9   48.24   23.00
  -1  -1  -9   16.89   14.81
   1  -1  10   17.05   11.41
  -1  -1 -10   -2.34    9.44
  -1  -1 -11   40.54   18.68
   1  -1  11   16.95   18.61
  -1  -1 -12   36.67   19.87
   1  -1  12   31.14   12.92
   1  -1  13    9.46   12.00
  -1  -1 -13   39.31   16.00
   1  -1  14  423.41   55.37
  -1  -1 -14  438.55   50.32
   1  -1  15   58.78   20.79
  -1  -1 -15   47.06   18.06
  -1   1 -15   39.49   16.43
  -1   1 -15   94.24   20.69
   1  -1  16   30.13   16.50
  -1  -1 -16   28.19   11.45
  -1   1 -16   40.32   14.41
  -1  -1 -16   28.72   13.36
  -1  -1 -17    1.61    8.50
   1  -1  17    2.01    7.59
  -1   1 -17   -1.50    5.10
  -1  -1 -17    1.39    4.78
  -1   1 -18    8.10    3.91
  -1  -1 -18   14.75    7.17
  -1   1 -19    4.66    5.16
  -1  -1 -19   -2.04    5.72
  -1   1 -20   -4.81    4.62
  -1  -1 -20    2.44    3.24
  -1   1 -21    5.24    4.34
  -1  -1 -21    3.13    2.65
  -1   1 -22   16.43    5.20
   1  -1  23   -1.51    2.69
  -1   1 -23    1.86    2.31
   1   2 -23    0.40    1.83
   1   2 -22    5.31    3.07
   1  -2 -22    1.42    3.13
   1   2 -22    3.56    3.47
   1   2 -21    7.29    4.29
   1  -2 -21   14.78    6.36
   1   2 -21   17.43    7.02
   1   2 -20    2.21    3.40
   1   2 -20   -5.96    3.59
   1  -2 -20    0.92    3.25
   1   2 -19   32.23   12.69
   1   2 -19   29.73   10.94
   1   2 -18    6.50    5.59
   1   2 -17   53.76   15.84
  -1   2  17    5.67    6.05
   1  -2 -17   54.74   16.39
  -1  -2  17   50.93   16.72
   1   2 -17   42.54   12.73
   1  -2 -16    1.64    5.41
  -1   2  16    1.93    5.96
   1   2 -16    6.63    8.16
  -1  -2  16   -9.47    9.03
   1   2 -16    8.29    5.85
   1   2 -16   -1.58    7.81
  -1  -2  15   48.19   16.74
  -1   2  15   46.51   17.06
   1   2 -15   69.91   19.52
   1  -2 -15   41.75   15.34
   1  -2 -15   25.71   10.23
   1   2 -15   37.93   14.93
   1   2 -14   31.20   11.51
   1  -2 -14   11.71    6.69
   1  -2 -14   18.19   10.32
   1   2 -14   12.31    7.45
   1  -2 -13   24.82   11.56
   1   2 -13   29.46   15.44
   1  -2 -12   32.57   12.23
   1   2 -12   30.96   14.65
   1   2 -11  940.32   71.06
   1  -2 -11  832.18   65.67
   1   2 -11  953.45   51.44
   1   2 -10  121.24   25.22
   1  -2 -10   82.78   19.97
   1   2 -10  146.84   18.72
   1  -2  -9   42.45   14.50
   1   2  -9   66.09   18.30
   1   2  -9   53.33   11.92
   1  -2  -8   13.14    7.82
   1   2  -8    4.76    7.14
   1   2  -8   15.88    7.64
   1  -2  -7   91.55   21.30
   1   2  -7  102.91   23.65
   1   2  -7  109.50   16.10
   1   2  -6   88.80   20.01
   1  -2  -6  109.05   20.98
   1   2  -6  127.11   16.48
   1   2  -5  710.17   48.29
   1  -2  -5  787.56   51.71
   1   2  -5  823.34   41.49
   1  -2  -4   78.19   15.25
   1   2  -4   50.88   12.24
   1   2  -4   61.38   10.34
   1  -2  -3 1118.91   47.72
   1   2  -3 1014.51   44.27
   1   2  -3 1179.00   49.02
   1  -2  -3 1100.78   47.70
   1   2  -3 1038.32   44.32
   1   2  -2  834.40   34.72
   1  -2  -2  835.38   35.04
   1  -2  -2  760.12   32.79
  -1   2   2  782.39   27.81
   1   2  -2  782.69   36.14
   1  -2  -1   87.31    9.37
  -1  -2   1   82.70    8.34
  -1   2   1   83.07    7.96
   1   2  -1   82.74    8.93
  -1  -2   0  150.65   10.67
  -1   2   0  164.25   11.17
  -1   2   0  148.88   11.02
   1  -2   1   60.27    7.11
   1   2   1   50.41    6.06
  -1  -2  -1   83.34    8.09
  -1   2  -1   76.12    7.33
  -1   2  -1   67.36    7.07
   1   2   2  765.63   38.03
  -1   2  -2  880.35   35.33
   1  -2   2  834.79   41.56
  -1  -2  -2  871.41   36.16
   1   2   2  844.15   32.63
  -1   2  -3 1135.54   49.73
  -1  -2  -3 1159.94   50.61
   1  -2   3 1098.44   56.67
   1   2   3 1106.62   55.48
   1   2   3 1130.81   39.73
  -1   2  -4   48.55   14.74
   1  -2   4   57.52   15.39
  -1  -2  -4   65.66   15.01
   1   2   4   39.20   12.96
   1  -2   5  811.00   60.59
   1   2   5  745.32   57.35
   1  -2   6  104.58   24.57
   1   2   6  103.81   23.15
  -1  -2  -7  166.85   36.13
   1  -2   7   90.58   27.22
   1   2   7   85.55   24.00
  -1   2  -7  127.99   30.29
   1  -2   8    9.16   16.93
  -1   2  -8   10.48   11.47
  -1  -2  -8   -2.42   18.21
   1   2   8    7.97    8.42
   1   2   9   39.25   19.18
  -1   2  -9   52.74   13.31
  -1  -2  -9   28.58   15.63
   1  -2   9   60.75   19.54
   1  -2  10  125.24   33.58
  -1   2 -10  160.36   28.42
  -1  -2 -10  137.65   29.70
   1   2  10  106.69   27.35
  -1   2 -11 1018.70   81.13
   1  -2  11 1061.45   89.41
   1   2  11  891.62   77.72
  -1  -2 -11 1067.67   85.77
  -1  -2 -12    6.33    7.71
   1   2  12   25.15   17.43
   1  -2  12   36.61   18.93
  -1   2 -12   33.98   17.21
  -1  -2 -13   32.23   15.38
  -1   2 -13   17.45    9.14
   1  -2  13   21.65   13.56
   1   2  13   18.80    6.58
   1   2  14   29.10   14.50
   1  -2  14   32.94   16.77
  -1  -2 -14   28.96   13.95
  -1   2 -14   39.11   17.64
  -1   2 -14   41.92   16.81
  -1  -2 -15   69.60   19.02
   1  -2  15   45.11   17.65
  -1   2 -15   47.77   14.98
   1   2  15   28.61   16.02
  -1   2 -15   47.35   16.92
  -1   2 -15   39.70   12.63
  -1   2 -16   16.66   11.41
  -1  -2 -16    8.62    7.03
   1   2  16   -3.97    5.75
   1  -2  16    2.13   11.81
  -1  -2 -16    4.23    4.31
  -1   2 -16    1.34    6.25
  -1   2 -16    3.20    5.69
  -1  -2 -17   28.49   13.21
   1   2  17   29.98   13.66
   1  -2  17   42.64   14.52
  -1   2 -17   56.89   16.91
  -1   2 -17   41.69   11.49
  -1   2 -17   44.22   14.17
  -1  -2 -17   45.80   13.68
  -1   2 -18   12.40    5.59
  -1   2 -18    2.80    7.67
  -1   2 -19   31.48   10.47
  -1   2 -19   41.52   10.26
  -1  -2 -19   24.76    8.69
  -1   2 -20    1.00    3.48
  -1   2 -21   12.47    6.41
  -1   2 -22   -1.14    3.68
   1   2  23    0.36    1.76
   1  -2  23   -1.86    1.83
   1   3 -23    3.53    2.39
   1   3 -22   -1.22    1.85
   1   3 -22   -1.17    2.59
   1  -3 -21    1.14    1.86
   1   3 -21    2.46    4.42
   1   3 -21    6.63    3.29
   1   3 -20   -2.53    4.83
   1   3 -20    2.17    5.19
   1  -3 -20    6.93    5.12
   1   3 -19   14.68    7.98
   1   3 -19   58.64   15.95
   1   3 -18  134.82   23.90
   1   3 -18  128.02   26.91
   1  -3 -17   29.75   14.24
  -1   3  17    9.39    9.60
  -1  -3  17   16.08   10.23
   1   3 -17   28.99   12.81
   1   3 -17   17.04   10.60
  -1   3  16    3.83    8.08
  -1  -3  16   14.76   11.07
   1   3 -16    3.20    6.71
   1  -3 -16    7.81    9.10
   1   3 -16   11.59   10.55
  -1   3  15    7.59    7.40
  -1  -3  15   -1.88    6.05
   1   3 -15    8.17    5.31
   1  -3 -15   -3.22    5.91
   1  -3 -15    4.66    6.68
   1   3 -15    6.99    9.90
   1   3 -15   -1.71    5.78
   1   3 -14   14.78   13.53
   1  -3 -14   22.54   11.59
   1   3 -14    5.33    8.27
   1  -3 -14    4.80    8.96
   1   3 -13   19.60    8.58
   1  -3 -13   22.24    7.59
   1  -3 -12  219.54   32.29
   1   3 -12  286.91   36.97
   1   3 -11  180.51   28.13
   1  -3 -11  150.97   26.98
   1   3 -11  194.40   22.04
   1   3 -10 1940.00  103.70
   1  -3 -10 1879.16   99.38
   1   3 -10 2079.57   86.75
   1  -3  -9   91.52   20.17
   1   3  -9   86.70   21.29
   1   3  -9   68.21   13.92
   1   3  -8  534.13   48.96
   1  -3  -8  550.60   48.82
   1   3  -8  624.58   42.79
   1   3  -7  101.33   20.92
   1  -3  -7  108.27   21.14
   1   3  -7  111.97   16.81
   1  -3  -6 1385.02   74.57
   1   3  -6 1265.19   70.12
   1  -3  -5  396.38   34.19
   1   3  -5  364.56   31.40
   1   3  -5  420.40   31.66
   1  -3  -4  623.13   36.45
   1   3  -4  603.41   35.40
   1   3  -4  591.41   35.92
   1   3  -3    2.85    4.25
   1  -3  -3    0.57    4.37
   1   3  -3   11.63    5.70
   1  -3  -3    9.95    3.38
  -1   3   3    9.08    4.02
   1   3  -3   20.34    6.08
   1  -3  -2 5650.78  137.90
   1   3  -2 5404.27  139.37
   1  -3  -2 4926.85  135.24
   1   3  -2 5355.63  136.53
  -1   3   2 5046.03  135.82
  -1   3   1  705.79   26.35
  -1  -3   1  717.24   27.01
  -1   3   1  709.51   32.24
  -1   3   0  984.81   31.14
  -1  -3   0 1028.34   32.74
  -1   3   0  950.44   37.75
  -1   3  -1  773.18   28.54
  -1  -3  -1  807.30   29.40
  -1  -3  -2 5579.97  136.82
  -1   3  -2 5230.22  134.84
   1   3   2 5611.73  139.20
   1  -3   3   17.75   10.65
   1   3   3    8.75    6.08
  -1  -3  -3   21.67    7.34
  -1   3  -3    6.56    5.11
   1   3   3   17.43    6.24
   1   3   4  598.39   42.97
   1  -3   4  600.96   44.47
  -1   3  -4  601.70   43.50
  -1  -3  -4  625.30   46.66
   1   3   4  651.73   31.59
   1   3   5  423.03   40.47
   1  -3   5  406.68   40.23
   1  -3   6 1360.36   86.41
  -1   3  -6 1253.27   85.56
   1   3   6 1340.89   83.64
  -1  -3  -6 1483.20  102.51
  -1   3  -7   81.76   23.86
   1   3   7  100.87   24.86
   1  -3   7   72.65   23.47
  -1  -3  -7   99.94   30.10
  -1  -3  -8  646.04   68.18
   1  -3   8  563.19   61.45
   1   3   8  500.35   55.84
  -1   3  -8  639.21   62.94
  -1  -3  -9   73.63   27.34
   1  -3   9   75.81   27.57
  -1   3  -9   77.81   24.22
   1   3   9   33.64   12.49
  -1  -3 -10 2160.01  124.76
   1   3  10 1743.95  111.35
   1  -3  10 2035.37  129.17
  -1   3 -10 2141.82  118.51
   1  -3  11  155.09   34.12
   1   3  11  181.90   32.94
  -1  -3 -11  190.89   34.38
  -1   3 -11  213.85   35.97
   1  -3  12  227.58   39.94
  -1   3 -12  264.03   39.53
  -1  -3 -12  258.86   39.23
   1   3  12  222.26   38.30
  -1   3 -13   29.56   14.03
  -1  -3 -13   44.13   16.87
   1  -3  13   26.64   13.02
   1   3  13   20.27   13.31
  -1  -3 -14    7.36    9.91
   1   3  14   18.05   11.11
   1  -3  14    9.35    8.84
  -1   3 -14   12.49    8.47
  -1   3 -14   22.12   10.30
  -1   3 -14   12.06    9.34
  -1   3 -15   11.95   11.52
   1  -3  15   24.37   17.26
   1   3  15    1.96    9.66
  -1  -3 -15   10.54    7.59
  -1   3 -15    9.59    8.10
  -1   3 -15   -1.47    7.35
   1   3  16   20.94   11.66
  -1   3 -16   19.25    9.23
  -1  -3 -16   11.54   10.56
   1  -3  16   24.77   14.60
  -1   3 -16    9.47    8.15
  -1   3 -16    9.68    9.34
   1  -3  17   16.89    9.28
  -1   3 -17   17.74    9.34
  -1  -3 -17    6.06   10.02
   1   3  17   18.11   11.65
  -1   3 -17    6.05    6.24
  -1   3 -17   21.02    9.60
  -1   3 -18   87.75   17.27
  -1   3 -18  117.37   22.76
  -1   3 -19    8.94    4.37
  -1   3 -19   11.11    6.75
  -1   3 -20    7.12    3.62
  -1   3 -20    5.16    4.84
  -1   3 -21   -1.60    4.69
  -1   3 -22   13.89    5.57
   1  -3  23   -0.37    2.31
   1   3  23    3.09    2.55
  -1   3 -23    4.92    2.53
   1   4 -23    2.25    2.48
   1   4 -23    1.22    1.84
   1   4 -22    3.20    3.58
   1   4 -22    3.97    3.50
   1   4 -21    7.10    4.14
   1   4 -21   18.81    6.81
   1   4 -20    9.96    6.91
   1   4 -20   10.34    6.01
   1   4 -19   19.95    8.03
   1   4 -19   45.43   14.26
   1   4 -18   74.31   18.97
   1   4 -18   59.16   16.23
   1   4 -17   69.61   20.46
   1   4 -17   77.11   19.79
   1  -4 -16   72.60   18.76
  -1  -4  16   47.19   15.00
  -1   4  16   48.84   17.43
   1   4 -16   72.62   17.74
   1   4 -16  102.37   23.16
  -1   4  15    7.39    7.46
   1  -4 -15    1.49    4.63
  -1  -4  15   16.48   12.88
   1   4 -15    7.57    7.13
   1   4 -15    1.72    8.63
   1   4 -15    3.49    5.22
   1   4 -14    4.57    7.50
  -1   4  14   17.94   10.08
   1  -4 -14   19.41    8.75
  -1  -4  14   12.81    9.76
   1  -4 -14   10.70   10.57
   1   4 -14   -1.74    8.50
   1   4 -14    8.63    5.48
   1  -4 -13   16.24   10.37
   1   4 -13   22.82   10.70
   1  -4 -12  265.33   34.28
   1   4 -12  329.13   38.40
   1   4 -12  236.49   25.94
   1   4 -11  810.42   61.62
   1  -4 -11  636.98   53.48
   1   4 -11  760.51   49.49
   1  -4 -10  187.37   27.34
   1   4 -10  202.58   29.05
   1   4 -10  195.16   24.01
   1  -4  -9   11.53    6.98
   1   4  -9    9.49    4.98
   1   4  -9   14.37    7.85
   1   4  -8  282.21   31.87
   1  -4  -8  303.96   33.39
   1   4  -8  309.66   30.88
   1   4  -7   26.43    9.00
   1  -4  -7   15.17    6.06
   1   4  -7   27.52    9.73
   1  -4  -6  869.16   52.79
   1   4  -6  810.73   50.44
   1   4  -6  918.11   53.42
   1  -4  -5  381.62   30.76
   1   4  -5  427.96   31.61
   1   4  -5  399.19   33.01
   1   4  -4  361.49   25.22
   1  -4  -4  439.99   28.11
   1   4  -4  430.88   32.28
   1  -4  -3 1602.98   56.44
   1   4  -3 1798.18   59.24
  -1   4   3 1793.94   61.96
   1   4  -3 1600.04   68.01
   1   4  -2   51.20    7.58
   1   4  -2   60.17    9.18
   1  -4  -2   47.58    7.93
   1  -4  -2   47.44    6.85
  -1   4   2   46.78    9.20
  -1   4   2   34.58    7.89
   1   4  -1   22.48    4.76
  -1  -4   1   17.97    3.80
   1  -4  -1   17.79    3.85
  -1   4   1   15.73    3.58
  -1   4   1   19.81    6.16
  -1   4   1    9.34    3.51
  -1  -4   0 3301.24   84.80
  -1   4   0 3397.31   84.33
  -1   4   0 3531.14  105.58
  -1  -4  -1   27.25    5.55
  -1   4  -1   16.84    3.78
   1   4   2   34.17    6.18
   1  -4   2   41.77    7.41
  -1   4  -2   40.82    7.61
   1  -4   3 1848.78   71.38
  -1   4  -3 1635.90   69.87
  -1  -4  -3 1874.41   76.27
   1   4   3 1706.93   66.47
   1  -4   4  474.56   37.43
   1   4   4  394.40   32.20
   1   4   4  465.10   29.33
  -1   4  -5  349.56   39.66
   1   4   5  442.80   39.02
   1  -4   5  458.24   41.92
  -1  -4  -5  383.58   47.39
   1   4   5  465.66   28.58
   1   4   6  863.67   61.33
   1  -4   6  817.77   63.04
  -1   4  -6  718.09   61.40
  -1  -4  -6  919.10   76.79
   1   4   6  914.88   42.92
  -1  -4  -7   57.72   22.56
  -1   4  -7   33.32   14.71
   1  -4   7   15.30   11.24
   1   4   7   18.51   10.73
  -1   4  -8  294.85   38.01
   1   4   8  254.90   36.76
   1  -4   8  264.48   40.17
  -1  -4  -8  351.55   47.14
  -1  -4  -9   -5.82   14.09
   1  -4   9    2.21   12.14
   1   4   9    3.75   10.38
  -1   4  -9   -3.45    6.11
   1   4  10  189.27   34.78
   1  -4  10  198.26   38.49
  -1  -4 -10  181.53   32.15
  -1   4 -10  197.28   31.84
   1   4  11  761.12   69.61
  -1  -4 -11  849.46   69.86
   1  -4  11  758.79   77.12
  -1   4 -11  855.22   68.13
   1   4  12  264.97   40.03
  -1  -4 -12  256.07   36.88
  -1   4 -12  259.15   35.69
   1  -4  12  244.02   42.07
  -1  -4 -13    3.49    7.21
  -1   4 -13   20.09   11.99
   1  -4  13   -2.41   13.00
   1   4  13    5.91    9.01
  -1   4 -13   -0.93    3.66
  -1   4 -13    4.41    5.45
  -1  -4 -14   13.50    9.29
   1  -4  14   -2.30   10.87
  -1   4 -14   11.40    5.79
   1   4  14   25.09   12.41
  -1   4 -14   13.97    7.09
  -1   4 -14    4.46    5.62
  -1   4 -14    7.61    8.33
  -1  -4 -15   -9.72   10.50
   1  -4  15   -2.15    7.37
   1   4  15    7.51    8.32
  -1   4 -15   11.02    9.52
  -1   4 -15   17.02   11.43
  -1   4 -15    8.66    9.81
  -1  -4 -16   24.39   12.01
  -1   4 -16   62.68   16.13
   1  -4  16   37.57   13.47
   1   4  16   23.47    7.07
  -1   4 -16   84.82   19.08
  -1   4 -16   69.25   18.29
  -1   4 -17   45.38   11.18
  -1   4 -17   53.47   17.11
  -1   4 -18   54.06   13.38
  -1   4 -18   45.48   14.16
  -1   4 -19   40.39   11.74
  -1   4 -19   19.29    6.81
  -1   4 -20    4.09    3.33
  -1   4 -20    2.18    2.82
  -1   4 -21    3.27    1.88
  -1   4 -21   12.63    6.30
   1   4  22    1.98    1.91
   1  -4  22   10.59    4.14
  -1   4 -22   11.64    5.05
   1   4  23    2.83    2.12
   1  -4  23    0.38    1.29
  -1   4 -23   -2.92    2.73
   1   5 -22    0.77    2.35
   1   5 -22    7.30    4.94
   1   5 -21   16.01    5.98
   1   5 -21    8.74    4.14
   1   5 -20   16.01    5.21
   1   5 -20   13.39    7.44
   1   5 -19    5.99    5.78
   1   5 -19    9.48    5.47
   1   5 -18   39.48   13.08
   1   5 -17   76.83   19.60
  -1  -5  16   23.35   12.82
   1  -5 -16   30.86   10.13
   1   5 -16   26.42    9.98
  -1   5  16   55.80   16.53
   1   5 -16   48.40   17.31
   1  -5 -15   38.46   12.14
  -1  -5  15   23.56   10.02
  -1   5  15   52.86   16.04
   1   5 -15   45.32   14.61
   1   5 -15   81.66   22.11
  -1   5  14   71.54   18.80
   1  -5 -14   80.18   18.18
  -1  -5  14   55.83   17.63
   1   5 -14   90.05   19.37
   1   5 -14   88.48   21.49
   1  -5 -14   65.71   17.57
   1   5 -14   97.68   22.33
   1   5 -13  119.56   22.08
   1  -5 -13   87.44   18.26
  -1  -5  13   99.72   23.33
  -1   5  13   97.92   22.40
   1  -5 -13   74.90   17.57
   1   5 -13  103.49   23.08
   1   5 -13  137.37   25.81
   1   5 -12   14.93    8.21
   1  -5 -12   12.99    5.37
   1   5 -12   18.42    7.88
   1   5 -11  367.18   38.56
   1  -5 -11  295.86   33.72
   1   5 -11  318.31   32.35
   1  -5 -10   47.10   13.57
   1   5 -10   65.16   15.53
   1   5 -10   89.33   16.52
   1   5  -9  518.97   43.81
   1  -5  -9  469.07   40.46
   1   5  -9  522.38   42.11
   1  -5  -8  317.92   32.06
   1   5  -8  354.77   34.24
   1   5  -8  361.66   35.41
   1  -5  -7  399.40   34.32
   1   5  -7  410.79   33.91
   1   5  -7  376.95   36.37
   1  -5  -6  928.40   50.21
   1   5  -6  907.62   48.84
   1   5  -6  837.61   54.05
   1   5  -5 1608.13   63.43
   1  -5  -5 1589.50   63.99
   1   5  -5 1675.73   76.53
   1   5  -4  529.92   28.69
   1  -5  -4  499.99   27.89
   1   5  -4  530.05   38.89
   1   5  -3  630.30   29.77
   1  -5  -3  586.23   27.93
  -1   5   3  636.54   36.15
  -1   5   3  581.65   34.11
  -1   5   2   81.23    7.98
  -1  -5   2   76.05    7.53
  -1   5   2   78.08   11.73
  -1   5   2   80.88   12.69
   1  -5  -1 2192.62   61.82
   1   5  -1 2274.06   62.73
  -1   5   1 2196.61   57.54
  -1  -5   1 2140.99   58.67
   1   5  -1 2328.35   88.16
  -1   5   1 2467.72   82.88
  -1   5   1 2339.30   78.00
  -1   5   0 1502.57   40.78
  -1  -5   0 1577.02   42.76
  -1   5   0 1410.92   58.34
   1   5   0 1648.49   72.67
  -1   5   0 1519.26   63.99
  -1   5  -1 2145.47   63.03
  -1  -5  -1 2248.12   63.53
   1   5   1 2259.79   86.75
  -1   5  -1 2106.98   79.72
  -1   5  -2   72.75   12.27
   1  -5   3  512.10   29.16
   1   5   3  477.97   26.64
   1   5   4  547.47   34.97
  -1  -5  -4  603.72   49.80
   1  -5   4  591.54   38.46
  -1   5  -4  493.41   42.11
   1   5   4  661.51   38.33
   1  -5   5 1679.87   80.25
  -1  -5  -5 1786.92   96.46
  -1   5  -5 1596.96   86.33
   1   5   5 1643.21   75.66
   1   5   5 1863.44   69.86
  -1   5  -6  843.47   61.94
  -1  -5  -6 1145.91   76.15
   1  -5   6  960.75   63.52
   1   5   6  890.32   58.21
   1   5   6 1040.60   49.17
   1  -5   7  418.79   44.08
  -1  -5  -7  400.63   44.19
  -1   5  -7  359.42   39.78
   1   5   7  359.31   38.23
   1   5   7  369.89   27.17
  -1  -5  -8  356.40   41.49
   1  -5   8  338.13   41.93
   1   5   8  314.52   37.61
  -1   5  -8  333.40   39.19
   1   5   8  298.18   24.30
  -1  -5  -9  462.45   47.19
   1   5   9  452.54   48.21
  -1   5  -9  486.01   46.56
   1  -5   9  511.20   57.10
   1   5   9  440.17   30.42
  -1   5 -10   92.87   21.74
   1  -5  10   88.87   24.93
  -1  -5 -10   56.51   17.27
   1   5  10   70.59   18.23
   1   5  10   92.26   14.21
   1   5  11  365.24   44.79
  -1  -5 -11  336.45   39.16
   1  -5  11  376.81   52.29
  -1   5 -11  306.04   37.73
  -1   5 -11  297.24   29.36
   1   5  11  348.99   27.51
   1  -5  12   19.26    9.62
   1   5  12   31.98   14.18
  -1   5 -12   19.49    8.60
  -1  -5 -12    7.73    7.67
  -1   5 -12   23.83    7.79
   1   5  12   13.24    5.77
  -1  -5 -13  106.48   21.52
   1   5  13  117.02   24.94
  -1   5 -13  142.00   26.05
   1  -5  13  117.85   28.77
  -1   5 -13  106.14   17.33
   1   5  13   92.97   14.30
  -1   5 -13   93.07   20.76
  -1   5 -13   83.73   19.84
  -1   5 -14   90.09   19.67
   1  -5  14  111.47   27.64
   1   5  14   70.74   20.45
  -1  -5 -14   74.47   17.90
  -1   5 -14   80.99   15.02
  -1   5 -14   82.70   19.47
  -1   5 -14   69.16   17.85
   1  -5  15   41.28   16.63
   1   5  15   55.94   16.62
  -1  -5 -15   51.62   14.94
  -1   5 -15   40.92   12.15
  -1   5 -15   48.83   13.54
  -1   5 -15   29.63   12.12
  -1   5 -16   44.21   13.78
   1  -5  16   54.48   18.94
   1   5  16   40.04   14.22
  -1  -5 -16   16.26    9.43
  -1   5 -16   26.93   13.14
  -1   5 -16   35.44   11.44
  -1   5 -17  107.32   22.76
  -1   5 -17   65.87   15.48
  -1   5 -18   48.11   15.96
  -1   5 -18   11.05    4.51
  -1   5 -19   -1.86    5.14
  -1   5 -19   14.24    8.01
  -1   5 -20   16.40    7.50
  -1   5 -20    8.78    5.23
  -1   5 -21   11.98    5.02
  -1   5 -21   10.23    5.48
   1  -5  22    1.03    2.59
   1   5  22    1.75    1.76
  -1   5 -22    2.62    2.24
  -1   5 -22    6.25    3.12
   1   6 -22    2.32    2.38
   1   6 -22    6.49    2.74
   1   6 -21   22.09    6.40
   1   6 -20    7.47    3.97
   1   6 -19   10.79    9.16
   1   6 -18    1.22    4.69
   1   6 -17   10.07    9.25
   1   6 -16   79.75   16.35
  -1   6  16   46.16   14.79
   1  -6 -16   42.62   12.26
   1   6 -16   69.76   19.71
   1   6 -16   82.81   18.27
  -1   6  15  377.38   32.42
  -1   6  15  293.05   37.94
   1  -6 -15  317.37   33.79
   1   6 -15  357.69   36.49
  -1  -6  15  281.51   39.89
   1   6 -15  430.48   46.08
   1   6 -15  415.13   45.16
  -1  -6  14   50.60   15.04
  -1   6  14   39.30   13.73
   1   6 -14   31.59    7.76
   1  -6 -14   38.01   11.45
   1   6 -14   41.10   13.57
   1   6 -14   70.58   17.69
   1   6 -13   22.74    9.38
  -1  -6  13   12.43   11.20
  -1   6  13   10.53    7.01
   1  -6 -13   20.17    8.81
   1   6 -13   32.38   10.76
   1   6 -13   13.00    7.79
   1   6 -13   44.49   16.53
   1   6 -12  163.62   23.91
  -1   6  12   84.57   19.37
   1  -6 -12  168.20   24.48
  -1  -6  12  137.44   26.98
   1   6 -12  147.23   22.33
   1   6 -12  172.41   27.46
   1  -6 -11   93.66   18.10
   1   6 -11  108.67   19.78
   1   6 -11  123.60   20.84
   1   6 -10  296.03   30.65
   1  -6 -10  271.57   30.07
   1   6 -10  304.76   33.59
   1   6  -9   30.50    9.42
   1  -6  -9   31.06   11.66
   1   6  -9   36.73   14.57
   1  -6  -8  476.70   37.22
   1   6  -8  436.91   34.95
   1   6  -8  453.18   40.26
   1  -6  -7 3077.83  107.19
   1   6  -7 3027.16  106.11
   1   6  -7 3121.89  122.87
   1  -6  -6  510.83   32.84
   1   6  -6  515.47   32.52
   1   6  -6  605.62   46.16
   1   6  -5   25.77    7.23
   1  -6  -5   38.54    8.13
   1   6  -5   51.73   12.68
   1  -6  -4  935.74   39.44
   1   6  -4 1077.68   42.09
   1   6  -4  945.99   56.08
  -1  -6   3  102.80    9.64
  -1   6   3  118.52   10.25
  -1   6   3  134.30   17.07
  -1   6   3  125.16   15.57
  -1  -6   2  506.73   20.29
  -1   6   2  554.20   19.81
  -1   6   2  579.70   36.82
  -1   6   2  562.02   34.80
  -1   6   1 1278.70   53.22
   1   6  -1 1142.80   59.50
  -1   6   1 1266.92   56.72
  -1   6   0 1846.38   75.76
   1   6   0 1837.88   82.04
   1   6   1 1460.57   70.10
  -1   6  -1 1306.78   62.47
  -1   6  -2  557.12   28.65
  -1   6  -2  517.75   36.67
   1  -6   3   89.86    9.07
  -1   6  -3  110.84   14.15
   1   6   3   74.16    8.06
  -1   6  -3  111.21   17.14
  -1   6  -4  996.93   51.87
  -1  -6  -4 1035.88   57.33
   1  -6   4  812.86   41.11
   1   6   4  824.48   39.28
  -1   6  -4 1011.50   53.02
   1   6   4 1166.36   55.28
   1  -6   5   38.39    9.12
   1   6   5   39.35    9.43
  -1   6  -5   36.70    8.43
  -1  -6  -5   49.75   13.49
   1   6   5   39.70    9.62
  -1   6  -6  577.34   43.29
  -1  -6  -6  598.70   46.72
   1  -6   6  539.11   42.21
   1   6   6  523.95   38.81
   1   6   6  615.46   38.87
   1   6   7 2840.47  115.62
  -1  -6  -7 3351.41  127.25
  -1   6  -7 2839.56  116.30
   1  -6   7 3313.57  130.32
   1   6   7 3274.99  105.92
  -1   6  -7 2915.96  110.04
  -1  -6  -8  407.61   39.62
   1   6   8  479.16   42.12
  -1   6  -8  395.00   37.55
   1  -6   8  455.49   46.52
   1   6   8  448.00   31.84
  -1   6  -8  403.18   33.77
  -1   6  -9   13.38    7.64
  -1  -6  -9   36.85   13.99
   1   6   9   26.38   13.22
   1  -6   9   32.11   14.96
   1   6   9   22.09    7.49
  -1   6  -9   33.81   10.19
  -1  -6 -10  234.80   30.88
   1   6  10  236.33   33.18
  -1   6 -10  249.17   31.21
   1  -6  10  285.67   41.07
  -1   6 -10  262.83   26.94
   1   6  10  269.33   24.55
   1  -6  11   88.72   23.23
   1   6  11   98.65   22.55
  -1   6 -11  102.91   19.84
  -1  -6 -11   92.35   18.88
   1   6  11  103.43   15.35
  -1   6 -11  102.30   17.02
  -1   6 -12  179.89   25.81
   1  -6  12  186.20   35.50
  -1  -6 -12  196.06   27.72
   1   6  12  166.75   29.10
  -1   6 -12  158.17   21.73
   1   6  12  203.27   21.45
  -1   6 -12  134.57   22.65
  -1   6 -12  164.61   26.17
  -1  -6 -13   19.54    9.23
  -1   6 -13   30.59   10.77
   1   6  13   22.95   12.49
   1  -6  13   37.01   19.26
  -1   6 -13   29.95    9.69
  -1   6 -13   23.54    9.46
  -1   6 -14   31.43   11.66
   1   6  14   51.71   16.18
  -1  -6 -14   21.74    9.84
   1  -6  14   23.19   10.51
  -1   6 -14   25.96    7.69
  -1   6 -14   49.86   15.06
  -1   6 -15  297.92   33.30
   1   6  15  285.73   36.84
   1  -6  15  268.55   38.86
  -1  -6 -15  291.32   32.89
  -1   6 -15  377.71   39.28
   1   6  16   49.96   15.09
  -1   6 -16   44.04   11.54
   1  -6  16   42.08   12.53
  -1  -6 -16   47.28   12.66
  -1   6 -16   57.57   16.49
  -1   6 -16   58.51   16.72
  -1   6 -17    9.47    6.30
  -1   6 -17   10.92    7.50
  -1   6 -18    3.79    5.51
  -1   6 -18    5.41    5.11
  -1   6 -19   -4.31    5.24
  -1   6 -19    1.82    3.92
  -1   6 -20   10.90    4.39
  -1   6 -20   21.76    7.22
   1  -6  21   11.57    4.84
   1   6  21   11.22    4.27
  -1   6 -21   15.32    5.11
  -1   6 -21   16.67    5.69
   1   6  22    5.78    2.56
   1  -6  22    9.38    4.85
  -1   6 -22    0.34    1.45
  -1   6 -22    3.84    2.76
   1   7 -22   17.14    4.30
   1   7 -21    0.98    2.49
   1   7 -20    4.43    2.66
   1   7 -20   -0.68    3.47
   1   7 -19   21.29    8.90
   1   7 -19    3.66    4.56
   1   7 -18    6.45    4.78
   1   7 -18    6.60    4.73
   1   7 -17   15.45    8.53
   1   7 -17   14.46    8.27
   1   7 -16    9.06    8.82
   1   7 -16    4.31    4.42
   1   7 -15   35.00   10.40
  -1   7  15   63.14   16.24
  -1   7  15   67.97   12.71
   1   7 -15   21.26    8.13
   1   7 -15   48.26   13.27
  -1   7  14  346.80   30.16
   1   7 -14  290.64   30.10
   1   7 -14  348.92   38.83
   1   7 -14  406.83   44.04
   1   7 -13    1.11    5.78
  -1   7  13   16.92    6.52
   1   7 -13   11.06    7.04
  -1   7  13    2.69    4.60
   1   7 -13    6.07    6.76
   1   7 -13   15.99    9.56
  -1   7  12   36.91   10.30
   1   7 -12   43.26   12.79
  -1   7  12   25.69    9.70
   1   7 -12   40.88   11.20
  -1  -7  12   29.82   13.54
   1  -7 -12   43.60   11.21
   1   7 -12   25.79   10.77
   1   7 -12   41.57   13.82
   1   7 -11  165.48   23.75
  -1   7  11  184.17   21.94
   1  -7 -11  167.63   22.25
  -1   7  11  136.86   21.76
  -1  -7  11  135.16   25.11
   1   7 -11  146.19   19.94
   1   7 -11  120.99   20.96
   1   7 -11  172.79   26.68
  -1  -7  10   81.57   19.77
  -1   7  10   69.14   16.21
   1   7 -10   90.75   15.60
   1  -7 -10   93.53   15.81
   1   7 -10   95.36   19.64
  -1   7  10   83.06   14.74
   1  -7  -9   41.21   11.82
   1   7  -9   54.17   11.95
   1   7  -9   66.45   16.44
  -1   7   9   55.71   12.44
   1   7  -8  289.03   25.38
   1  -7  -8  293.04   26.43
   1   7  -8  343.31   36.84
  -1   7   8  315.03   27.51
   1   7  -8  244.01   29.80
   1   7  -7  350.04   26.11
   1  -7  -7  355.95   27.16
  -1   7   7  397.51   30.55
   1   7  -7  362.93   37.84
   1   7  -7  340.83   35.30
   1  -7  -6 1391.18   56.16
   1   7  -6 1429.50   55.53
   1   7  -6 1521.96   78.96
  -1   7   6 1433.15   63.98
   1   7  -5   94.56   10.73
   1  -7  -5   78.54   10.16
   1   7  -5   69.09   16.16
  -1   7   4  218.63   14.59
   1   7  -4  224.21   26.72
  -1   7   3  182.13   10.12
  -1   7   3  255.64   24.37
  -1   7   3  235.88   23.49
   1   7  -2  558.64   42.75
  -1   7   2  646.41   39.76
  -1   7   2  646.97   42.17
   1   7  -1  119.40   19.35
  -1   7   1  113.74   18.23
  -1   7   1  113.64   16.61
   1   7   0  681.33   47.96
  -1   7   0  630.50   42.63
  -1   7  -1  123.02   18.34
   1   7   1  138.95   21.01
  -1   7  -2  634.95   42.67
  -1   7  -3  174.50   11.56
  -1   7  -3  211.15   23.91
   1   7   4  163.40   12.35
  -1   7  -4  205.80   16.57
   1   7   5   56.88    9.11
  -1  -7  -5   60.74   10.72
  -1   7  -5   70.69   10.66
   1  -7   5   76.47   11.43
   1   7   5   72.05   13.73
  -1  -7  -6 1450.53   66.61
  -1   7  -6 1383.20   60.86
   1  -7   6 1257.84   61.83
   1   7   6 1232.78   57.39
   1   7   7  305.53   27.41
  -1  -7  -7  323.87   30.46
   1  -7   7  388.50   35.11
  -1   7  -7  344.80   28.75
   1   7   7  404.20   31.78
  -1   7  -7  328.97   31.93
  -1   7  -8  281.26   27.38
   1   7   8  263.81   27.54
  -1  -7  -8  296.51   29.50
   1  -7   8  302.06   34.78
  -1   7  -8  291.45   28.99
   1   7   8  351.77   29.08
  -1   7  -8  294.04   32.39
   1   7   9   43.04   11.70
  -1   7  -9   45.48   11.17
  -1  -7  -9   54.12   12.84
   1  -7   9   51.65   14.71
  -1   7  -9   48.49   12.32
   1   7   9   72.90   13.20
  -1   7  -9   55.18   14.62
   1  -7  10   91.05   21.92
  -1   7 -10   72.38   15.13
   1   7  10   85.36   17.61
  -1  -7 -10   75.41   15.08
   1   7  10  109.78   15.76
  -1   7 -10   91.34   16.15
  -1  -7 -11  132.32   20.82
   1   7  11  146.41   23.36
  -1   7 -11  144.89   21.82
   1  -7  11  190.36   32.21
  -1   7 -11  177.94   22.85
   1   7  11  168.21   20.37
  -1   7 -11  164.39   24.89
   1  -7  12   44.83   19.04
  -1  -7 -12   35.68   11.41
   1   7  12   37.44   11.67
  -1   7 -12   45.71   12.49
   1   7  12   46.75   10.74
  -1   7 -12   33.88   11.07
  -1   7 -12   30.17   10.36
  -1   7 -12   20.52    9.91
  -1   7 -13    6.42    5.46
   1   7  13    6.74    8.03
  -1   7 -13   -1.03    7.70
  -1   7 -13    8.72    4.83
  -1   7 -13    5.24    6.14
  -1   7 -14  299.36   29.88
  -1   7 -14  274.10   29.39
   1   7  14  218.18   29.88
  -1   7 -14  287.60   33.79
  -1   7 -14  281.92   33.96
  -1   7 -15   55.03   13.33
   1   7  15   39.86   12.96
  -1   7 -15   67.87   16.24
  -1   7 -16    6.28    6.63
  -1   7 -17   16.33    8.34
  -1   7 -18   10.36    6.71
  -1   7 -19   16.58    6.50
  -1   7 -19   20.82    8.52
   1   7  20    1.51    2.18
   1  -7  20    6.66    4.89
  -1   7 -20   -1.37    3.37
  -1   7 -20   -6.17    4.76
   1   7  21    3.27    2.41
  -1   7 -21    3.39    2.19
  -1   7 -21    1.78    3.78
  -1   7 -22   15.37    4.83
  -1   7 -22   12.12    3.51
   1   8 -21   -1.38    1.55
   1   8 -21    3.88    2.68
   1   8 -20    1.80    2.33
   1   8 -20   -1.22    3.47
   1   8 -19   27.33    7.74
   1   8 -19   19.78    7.06
   1   8 -18   33.62   10.77
   1   8 -18   35.11   10.01
   1   8 -17   20.23    9.59
   1   8 -17    6.08    4.78
   1   8 -16   16.25    8.37
   1   8 -16   33.96   12.48
   1   8 -15   13.74    9.13
  -1   8  14   29.32    8.85
   1   8 -14   28.09   10.91
   1   8 -13   36.74   11.77
  -1   8  13   21.72    8.17
   1   8 -13    8.66    7.14
   1   8 -13   12.97    8.13
   1   8 -12   51.13   13.40
  -1   8  12   61.26   12.48
   1   8 -12   27.86   10.80
   1   8 -12   73.84   19.04
   1   8 -12   44.82   12.94
  -1   8  11  321.04   29.30
   1   8 -11  347.49   35.87
   1   8 -11  283.98   32.19
   1   8 -11  294.42   35.80
   1   8 -11  220.07   28.40
   1   8 -11  302.38   34.97
  -1   8  10  150.73   19.67
   1   8 -10  173.02   25.92
   1   8 -10  107.13   19.66
  -1   8  10   92.57   16.38
  -1   8   9   39.19   10.08
   1   8  -9   67.75   11.84
   1   8  -9   56.45   14.75
  -1   8   9   53.21   11.31
   1   8  -8   10.54    4.45
  -1   8   8   11.46    5.13
   1   8  -8   13.22    8.54
   1   8  -8    9.93    6.06
  -1   8   8   23.18    7.86
  -1   8   7   40.78    9.62
   1   8  -7   82.76   17.90
  -1   8   7   65.52   13.07
   1   8  -7   54.69   14.60
   1   8  -6  510.27   44.87
  -1   8   6  520.94   36.52
   1   8  -6  503.37   44.35
   1   8  -5   -5.18    9.13
   1   8  -5   11.03    9.35
   1   8  -4    4.03    5.85
  -1   8   3  570.25   38.24
  -1   8   3  612.92   40.70
  -1   8   2  609.80   44.33
  -1   8   2  661.85   41.33
   1   8  -2  591.58   45.53
   1   8  -1  299.51   32.86
  -1   8   1  339.66   32.02
  -1   8   0   98.99   16.87
   1   8   0   87.67   17.65
   1   8   1  256.21   29.83
  -1   8  -1  254.72   27.49
  -1   8  -2  514.95   39.10
  -1   8  -3  511.66   39.10
  -1   8  -4    8.61    6.78
  -1   8  -4    5.80    4.32
  -1   8  -5    8.91    5.66
  -1   8  -5    2.77    7.37
  -1   8  -6  599.99   49.99
  -1   8  -7   61.63   13.94
  -1   8  -7   56.21   14.16
   1   8   7   71.36   13.50
  -1   8  -8   20.61    6.76
   1   8   8   11.38    4.10
   1   8   8    5.85    5.27
  -1   8  -8   31.37   10.49
  -1   8  -8   20.38    6.63
   1   8   9   38.06   10.27
  -1   8  -9   38.01    9.32
  -1   8  -9   46.53   12.35
  -1   8  -9   69.78   16.06
   1   8   9   68.41   13.12
  -1   8 -10   95.92   15.59
   1   8  10   98.41   16.34
  -1   8 -10  151.12   21.50
   1   8  10  168.52   20.31
  -1   8 -10  145.30   21.70
  -1   8 -11  308.24   31.18
   1   8  11  351.41   30.40
  -1   8 -11  263.15   30.50
   1   8  12   75.25   14.48
  -1   8 -12   43.39   11.50
  -1   8 -12   53.55   14.37
  -1   8 -12   37.44   11.66
  -1   8 -13   25.47    9.56
  -1   8 -13   18.55    7.92
  -1   8 -13   34.52   11.95
  -1   8 -14   18.74    7.65
  -1   8 -14   19.86    9.28
  -1   8 -14    8.42    4.52
  -1   8 -15   13.49    8.90
  -1   8 -15    3.59    6.25
  -1   8 -16   24.12    9.55
  -1   8 -16   12.92    8.22
  -1   8 -17    6.38    5.33
  -1   8 -17    3.28    3.70
   1   8  18   16.01    5.18
  -1   8 -18   45.54   11.53
  -1   8 -19    7.18    4.71
  -1   8 -20    3.04    3.51
  -1   8 -21    5.60    3.25
   1   9 -21    1.82    1.99
   1   9 -21    5.84    2.83
   1   9 -20    5.86    3.40
   1   9 -20    5.59    1.92
   1   9 -19    9.31    4.72
   1   9 -19   18.36    6.12
   1   9 -18   40.01   10.37
   1   9 -18   31.42    8.59
   1   9 -17   35.28    9.81
   1   9 -17   39.16   11.07
   1   9 -16    7.36    4.13
   1   9 -15   24.42    8.96
  -1   9  14   -0.83    4.17
   1   9 -14   -1.20    3.40
   1   9 -14    6.11    4.93
  -1   9  13   70.84   13.79
   1   9 -13   74.84   15.30
   1   9 -13   44.49   12.77
   1   9 -13   86.79   16.43
  -1   9  12   58.85   12.16
   1   9 -12   74.44   17.13
   1   9 -12   73.27   17.02
   1   9 -12   67.00   15.18
   1   9 -12   74.15   17.49
  -1   9  11  229.45   24.56
   1   9 -11  185.29   26.11
   1   9 -11  212.39   31.23
   1   9 -11  207.42   26.07
   1   9 -11  225.90   29.49
  -1   9  10  409.85   33.72
   1   9 -10  460.77   43.10
   1   9 -10  377.92   35.34
   1   9 -10  408.40   42.83
   1   9 -10  445.92   42.05
   1   9  -9   93.24   19.33
  -1   9   9   99.41   15.98
   1   9  -9   88.87   20.62
   1   9  -9   90.53   18.02
  -1   9   8   57.28   11.76
   1   9  -8   31.73   12.62
   1   9  -8   56.24   16.30
  -1   9   7  307.25   28.70
   1   9  -7  336.28   37.73
   1   9  -7  324.71   36.14
  -1   9   6  256.47   26.04
   1   9  -6  243.99   31.48
   1   9  -6  260.16   32.16
   1   9  -5  539.92   46.75
   1   9  -5  467.82   43.82
   1   9  -4  354.04   39.00
  -1   9   3  175.42   22.65
   1   9  -2 1251.00   73.26
  -1   9   2 1503.76   76.77
   1   9  -1 1056.16   65.26
  -1   9   1 1088.15   64.13
   1   9  -1  878.41   65.16
  -1   9   0  481.77   40.02
   1   9   0  495.83   43.10
  -1   9   0  468.45   44.72
   1   9   0  358.55   39.81
   1   9   1 1049.03   64.07
  -1   9  -1  988.42   58.66
  -1   9  -1 1009.37   67.57
  -1   9  -2 1317.51   68.42
  -1   9  -3  150.64   24.69
  -1   9  -3  160.69   22.42
  -1   9  -4  409.09   35.69
  -1   9  -4  375.29   41.04
  -1   9  -5  528.46   41.59
  -1   9  -5  543.70   47.49
  -1   9  -6  294.05   33.98
  -1   9  -7  366.66   37.34
  -1   9  -8   27.57    8.93
  -1   9  -8   69.81   17.11
  -1   9  -9  100.70   18.05
  -1   9  -9   94.85   18.21
  -1   9  -9   76.68   15.95
  -1   9 -10  360.13   34.46
  -1   9 -10  378.95   35.97
  -1   9 -10  383.59   36.13
  -1   9 -10  368.30   36.27
  -1   9 -11  175.39   23.33
  -1   9 -11  209.39   26.46
  -1   9 -11  213.06   25.18
  -1   9 -11  151.97   23.54
  -1   9 -12   65.54   13.64
  -1   9 -12   58.18   13.92
  -1   9 -13   83.73   15.10
  -1   9 -13   72.66   14.90
  -1   9 -14    0.96    3.12
  -1   9 -14    4.41    3.56
  -1   9 -14    3.46    3.94
  -1   9 -15   21.03    7.63
  -1   9 -15   21.54   10.21
  -1   9 -16   21.70    8.84
  -1   9 -16    7.54    6.30
  -1   9 -17   30.83    9.75
  -1   9 -17   23.84    8.29
  -1   9 -18   36.23    9.83
  -1   9 -18   44.41   11.77
  -1   9 -19   15.97    5.14
  -1   9 -19   13.12    6.24
  -1   9 -20    6.36    3.47
  -1   9 -20    1.69    2.44
  -1   9 -21    3.86    2.82
  -1   9 -21    0.74    1.92
   1  10 -20    4.88    3.10
   1  10 -20    0.41    2.13
   1  10 -19   26.77    6.64
   1  10 -19   22.13    5.99
   1  10 -18   23.90    6.87
   1  10 -17   15.54    5.82
   1  10 -16   18.94    7.94
   1  10 -15    4.88    5.70
   1  10 -15   -0.83    2.98
   1  10 -14   30.11    9.67
   1  10 -14   30.02   10.45
  -1  10  13   13.71    4.34
   1  10 -13   12.99    7.37
   1  10 -13   17.32    7.19
  -1  10  12  111.36   17.58
   1  10 -12  104.30   19.94
   1  10 -12   83.03   17.94
   1  10 -12   91.68   16.38
   1  10 -12   87.65   18.05
  -1  10  11  189.11   22.43
   1  10 -11  173.62   25.59
   1  10 -11  173.93   22.76
   1  10 -11  205.95   30.29
   1  10 -11  203.18   26.64
  -1  10  10  192.38   23.08
   1  10 -10  155.15   25.23
   1  10 -10  159.34   26.54
  -1  10  10  154.52   22.38
   1  10 -10  174.41   25.63
   1  10 -10  164.95   21.24
   1  10 -10  160.79   23.71
   1  10 -10  161.62   24.59
  -1  10   9  108.87   16.83
   1  10  -9  116.17   22.39
  -1  10   9   82.95   17.10
   1  10  -9   90.58   15.06
   1  10  -9   94.25   18.18
   1  10  -9  102.84   22.45
   1  10  -9  128.48   20.87
   1  10  -9   89.39   18.45
   1  10  -8  219.62   30.39
  -1  10   8  186.66   22.44
   1  10  -8  154.28   24.02
   1  10  -8  196.11   28.19
  -1  10   7    6.20    3.90
   1  10  -7    1.41    6.55
   1  10  -7   10.54    5.80
   1  10  -6  348.69   38.85
  -1  10   6  353.59   31.42
   1  10  -6  312.40   35.70
  -1  10   5  232.69   26.00
   1  10  -5  292.85   34.63
  -1  10   4  528.27   42.71
   1  10  -4  539.97   50.03
   1  10  -3 1028.10   66.83
  -1  10   3 1022.75   59.82
  -1  10   3 1058.40   64.68
  -1  10   2  238.25   29.77
   1  10  -2  202.37   29.06
  -1  10   2  232.62   30.04
   1  10  -2  206.48   30.49
   1  10  -1   10.26    9.70
  -1  10   1   29.18   13.55
  -1  10   1   22.81   10.98
   1  10  -1   27.46   10.48
   1  10   0  946.44   63.10
  -1  10   0 1035.48   63.92
  -1  10   0  995.64   65.64
   1  10   0  889.08   63.60
   1  10   1   31.14   11.73
  -1  10  -1   22.70   10.37
  -1  10  -1   12.52    6.73
  -1  10  -2  197.94   25.57
   1  10   2  170.80   25.46
  -1  10  -3  967.97   58.23
   1  10   3  842.11   53.55
  -1  10  -3  961.19   65.02
  -1  10  -4  472.01   39.97
   1  10   4  448.52   35.48
  -1  10  -5  270.57   29.91
  -1  10  -5  291.96   34.67
  -1  10  -6  286.60   30.58
  -1  10  -6  356.32   37.63
  -1  10  -7    8.94    7.61
  -1  10  -8  165.42   23.62
  -1  10  -8  202.45   28.12
  -1  10  -8  185.27   26.22
  -1  10  -8  178.51   24.07
  -1  10  -9   91.92   17.02
  -1  10  -9  105.91   20.09
  -1  10  -9   82.35   15.61
  -1  10  -9   99.00   17.45
  -1  10  -9  111.53   19.14
  -1  10 -10  142.66   21.08
  -1  10 -10  180.75   24.20
  -1  10 -10  122.74   20.01
  -1  10 -10  197.96   25.41
  -1  10 -10  173.52   23.54
  -1  10 -11  156.32   21.73
  -1  10 -11  200.85   25.62
  -1  10 -11  172.81   23.83
  -1  10 -11  172.21   22.61
  -1  10 -11  211.29   25.04
  -1  10 -12   80.36   14.63
  -1  10 -12   69.92   14.43
  -1  10 -12   83.53   16.49
  -1  10 -12   81.12   15.90
  -1  10 -13    6.86    3.36
  -1  10 -13   16.51    8.66
  -1  10 -14   33.26   10.31
  -1  10 -15   -1.84    3.01
  -1  10 -16   16.06    7.29
  -1  10 -16   23.94    8.10
  -1  10 -17    6.79    4.59
  -1  10 -17   27.51    8.40
  -1  10 -18   27.49    8.63
  -1  10 -18   27.55    7.07
  -1  10 -19   18.22    5.80
  -1  10 -19   18.24    5.60
  -1  10 -20    2.73    2.73
  -1  10 -20    6.70    2.69
   1  11 -19    2.55    2.31
   1  11 -18   25.95    6.26
   1  11 -17   27.96    6.86
   1  11 -17   32.78    8.74
   1  11 -16   28.90    7.54
   1  11 -16   11.77    6.08
   1  11 -15   16.30    6.31
   1  11 -15   13.72    6.10
   1  11 -14   10.60    5.80
   1  11 -14   -0.75    3.26
   1  11 -13   50.82   12.34
   1  11 -13   30.28    8.59
   1  11 -12    4.85    3.95
   1  11 -12    0.83    4.24
   1  11 -12    3.98    5.76
  -1  11  11   56.72   11.84
   1  11 -11   59.21   14.93
   1  11 -11   63.85   17.99
   1  11 -11   48.93   11.48
   1  11 -11   68.57   15.29
   1  11 -11   48.59   12.80
   1  11 -10   60.42   16.05
  -1  11  10   62.76   13.24
  -1  11  10   49.03   11.88
   1  11 -10   72.52   19.66
   1  11 -10   55.67   15.35
   1  11 -10   84.07   16.82
   1  11 -10   66.24   14.25
   1  11  -9  103.90   20.04
  -1  11   9  108.25   16.91
   1  11  -9  130.82   22.82
  -1  11   9   80.56   16.26
   1  11  -9  107.26   18.51
   1  11  -9  134.77   21.91
   1  11  -8   36.60   11.71
  -1  11   8   64.60   14.10
   1  11  -8   49.92   14.18
   1  11  -8   43.98   10.23
   1  11  -8   35.76   12.95
   1  11  -8   38.69   12.66
   1  11  -8   34.25   10.89
   1  11  -7   58.59   16.15
   1  11  -7   67.81   16.97
   1  11  -7   68.58   16.95
   1  11  -7   45.27   12.05
   1  11  -7   42.32   10.42
  -1  11   7   45.63   11.89
   1  11  -7   43.02   11.82
   1  11  -7   44.69   11.61
   1  11  -6   28.61   10.65
   1  11  -6   21.78    9.81
   1  11  -6   39.98   10.92
   1  11  -6   25.87   10.87
   1  11  -6   61.02   16.67
  -1  11   6   26.87   10.70
   1  11  -6   44.15   13.84
   1  11  -5  187.19   27.95
  -1  11   5  215.51   24.66
   1  11  -4  255.45   33.69
  -1  11   4  229.70   26.37
  -1  11   3  110.89   20.43
   1  11  -3  137.57   23.76
   1  11  -2   26.55   11.08
  -1  11   2   10.83    7.79
   1  11  -2   20.62   10.29
  -1  11   2    2.58    4.82
  -1  11   1  221.14   30.51
   1  11  -1  202.06   28.98
   1  11  -1  182.58   28.28
  -1  11   1  208.62   27.46
  -1  11   0  141.88   22.84
  -1  11   0  136.54   23.34
   1  11   0   90.04   18.59
  -1  11  -1  193.16   26.88
   1  11   1  194.54   28.18
  -1  11  -1  185.64   27.08
  -1  11  -2    8.22    5.49
   1  11   2    9.38    9.09
  -1  11  -3  120.15   20.02
   1  11   3  108.59   18.60
  -1  11  -4  224.22   27.88
   1  11   4  223.53   24.91
  -1  11  -4  203.23   28.87
  -1  11  -5  197.90   26.10
  -1  11  -5  185.65   25.67
  -1  11  -5  261.39   32.32
  -1  11  -6   39.92   13.20
  -1  11  -6   41.87   11.84
  -1  11  -6   38.14   11.56
  -1  11  -7   51.26   12.47
   1  11   7   76.35   15.87
  -1  11  -7   36.73    9.34
  -1  11  -7   41.46   10.61
  -1  11  -7   44.03   12.79
  -1  11  -8   28.93   11.27
  -1  11  -8   49.44   13.30
  -1  11  -8   41.43    9.93
  -1  11  -8   48.29   11.72
  -1  11  -8   55.80   14.16
  -1  11  -8   34.78   10.06
  -1  11  -9  108.44   19.39
  -1  11  -9   92.11   17.24
  -1  11  -9   77.16   15.07
  -1  11  -9  124.85   20.63
  -1  11  -9  143.29   22.26
  -1  11 -10   68.22   14.81
  -1  11 -10   59.73   13.85
  -1  11 -10   50.25   12.07
  -1  11 -10   57.25   12.80
  -1  11 -10   57.74   13.13
  -1  11 -11   51.28   12.21
  -1  11 -11   52.20   12.21
  -1  11 -11   58.23   14.67
  -1  11 -11   43.62   12.06
  -1  11 -11   29.90   10.74
  -1  11 -12    3.94    4.49
  -1  11 -12    0.98    5.33
  -1  11 -12    6.55    4.18
  -1  11 -12    7.24    2.96
  -1  11 -13   43.99   11.35
  -1  11 -13   39.17   10.78
  -1  11 -14    3.84    3.65
  -1  11 -14   12.19    6.47
  -1  11 -15   17.54    6.86
  -1  11 -16   12.24    6.51
  -1  11 -17   26.12    7.72
  -1  11 -17   20.50    6.43
  -1  11 -18   21.41    6.30
  -1  11 -18   19.15    6.07
  -1  11 -19    3.16    3.04
  -1  11 -19    7.23    3.43
   1  12 -19    0.65    1.60
   1  12 -19    0.73    1.26
   1  12 -18    0.84    2.50
   1  12 -18    2.01    1.66
   1  12 -17    3.75    2.77
   1  12 -17   -0.51    2.60
   1  12 -16   19.51    6.13
   1  12 -16   20.17    5.29
   1  12 -15   62.83   10.46
   1  12 -15   76.25   12.32
   1  12 -14   18.52    6.27
   1  12 -14   14.96    5.90
   1  12 -13    4.06    2.22
   1  12 -13   -0.81    4.14
   1  12 -12   65.26   11.86
   1  12 -12   55.60   11.02
   1  12 -12   58.10   12.27
  -1  12  11   11.48    3.79
   1  12 -11   19.65    8.25
   1  12 -11   21.09    7.97
   1  12 -10   20.07    9.03
  -1  12  10   36.71   10.83
   1  12 -10   26.99    9.22
   1  12 -10   26.54    8.87
   1  12 -10   27.85   10.94
   1  12  -9    5.32    4.14
  -1  12   9    8.47    6.93
   1  12  -9   14.33    7.47
   1  12  -9    9.49    4.76
   1  12  -9   11.53    7.87
   1  12  -8   71.04   16.83
   1  12  -8   85.04   17.83
   1  12  -8   70.36   17.21
  -1  12   8   78.60   16.44
   1  12  -8   59.07   15.39
   1  12  -8   61.46   13.52
   1  12  -7  473.59   45.57
   1  12  -7  374.03   39.84
   1  12  -7  402.83   40.58
  -1  12   7  385.37   35.90
   1  12  -7  399.35   30.77
   1  12  -7  473.43   43.46
   1  12  -7  350.51   30.42
   1  12  -7  413.93   40.04
   1  12  -6   30.74   11.50
   1  12  -6   52.94   15.63
  -1  12   6   39.88   12.43
   1  12  -6   35.08   10.01
   1  12  -6   41.12   12.46
   1  12  -6   36.69    8.53
   1  12  -6   22.12    9.54
   1  12  -6   53.42   14.98
  -1  12   5   15.39    6.58
   1  12  -5    2.81    5.44
   1  12  -5   -3.85    8.04
  -1  12   5   -1.07    5.67
   1  12  -5   -3.79    4.59
   1  12  -5    0.99    5.01
   1  12  -5    2.61    6.03
   1  12  -5    1.35    6.49
   1  12  -4  111.66   21.93
  -1  12   4   99.74   16.15
   1  12  -4   96.84   19.60
   1  12  -4  108.74   19.73
  -1  12   4  101.86   17.52
   1  12  -4  125.12   18.15
   1  12  -4  134.78   20.21
  -1  12   3   32.03   10.43
   1  12  -3   12.67    7.71
   1  12  -3    7.35    5.01
   1  12  -3   12.76    9.01
  -1  12   3    9.57    4.91
  -1  12   3   23.36   10.18
   1  12  -3    2.82    6.33
  -1  12   2   72.39   17.20
   1  12  -2  147.95   24.48
  -1  12   2  127.87   21.59
   1  12  -2  111.53   21.89
  -1  12   2  106.03   18.91
  -1  12   2   99.40   17.94
   1  12  -2  101.34   20.53
  -1  12   1  334.73   37.17
   1  12  -1  247.89   29.69
   1  12  -1  396.16   40.68
  -1  12   1  328.97   33.53
   1  12  -1  293.12   34.71
  -1  12   1  244.06   28.97
  -1  12   0  170.24   26.33
   1  12   0  143.48   21.99
   1  12   0  162.45   24.82
   1  12   0  203.84   29.19
  -1  12   0  191.11   25.80
  -1  12   0  162.04   23.50
  -1  12  -1  318.38   35.50
   1  12   1  254.69   30.47
  -1  12  -1  237.63   27.98
   1  12   1  330.56   36.19
  -1  12  -1  282.87   32.27
   1  12   1  225.22   28.39
  -1  12  -1  301.55   33.08
  -1  12  -2  131.69   21.68
   1  12   2  120.19   20.35
  -1  12  -2  119.16   20.72
   1  12   2   70.18   12.37
   1  12   2  102.14   18.81
  -1  12  -2   94.59   17.86
  -1  12  -2   81.85   17.51
   1  12   2  120.69   20.41
  -1  12  -3   20.29    7.63
   1  12   3   14.59    7.22
  -1  12  -3    4.76    5.21
   1  12   3    8.70    4.28
   1  12   3    9.42    6.14
  -1  12  -3   13.93    7.43
   1  12   3   10.63    6.52
  -1  12  -4  105.76   19.66
  -1  12  -4  133.41   21.80
   1  12   4  100.33   16.46
  -1  12  -4   97.14   16.80
   1  12   4  136.93   22.74
   1  12   4  112.28   18.81
  -1  12  -5    5.08    6.40
  -1  12  -5    9.41    8.10
  -1  12  -5    9.68    6.21
   1  12   5    1.17    5.57
   1  12   5    0.86    3.34
  -1  12  -5   -0.85    3.42
  -1  12  -5   -3.41    5.23
  -1  12  -5   -2.35    2.64
  -1  12  -6   22.18   10.73
  -1  12  -6   23.44   10.88
   1  12   6   34.16   12.41
  -1  12  -6   25.78    8.05
  -1  12  -6   27.28    9.51
  -1  12  -6   20.54    7.35
  -1  12  -7  331.61   28.26
   1  12   7  456.91   40.10
  -1  12  -7  447.61   39.04
  -1  12  -7  460.54   40.75
  -1  12  -7  314.79   30.30
  -1  12  -8   72.88   15.29
  -1  12  -8   74.37   13.93
   1  12   8   81.11   16.95
  -1  12  -8   65.29   13.89
  -1  12  -8   77.12   15.51
  -1  12  -8   59.57   12.28
  -1  12  -9   11.00    7.65
  -1  12  -9    2.20    5.24
  -1  12  -9   16.30    8.05
  -1  12  -9    6.23    5.47
  -1  12  -9    9.12    3.54
  -1  12 -10   18.37    7.37
  -1  12 -10   22.04    8.96
  -1  12 -10   28.25    9.99
  -1  12 -10   22.47    8.32
  -1  12 -10   13.11    5.97
  -1  12 -11   16.59    7.30
  -1  12 -11   13.96    6.99
  -1  12 -11   12.43    8.02
  -1  12 -11    1.00    3.92
  -1  12 -12   52.74   12.60
  -1  12 -12   72.68   12.58
  -1  12 -12   58.13   12.28
  -1  12 -13    7.52    3.84
  -1  12 -13    3.60    3.99
  -1  12 -14    5.78    3.52
  -1  12 -14   18.27    7.50
  -1  12 -15   92.06   14.30
  -1  12 -15   78.96   13.59
  -1  12 -16   22.72    6.45
  -1  12 -17    7.19    3.86
   1  12  18    6.58    3.26
  -1  12 -18    4.70    2.98
   1  12  19    1.25    1.77
  -1  12 -19    1.88    2.04
  -1  12 -19   -2.32    2.12
   1  13 -18    6.81    2.80
   1  13 -17    1.17    2.02
   1  13 -16    2.78    2.77
   1  13 -16    4.40    2.46
   1  13 -15   15.57    5.20
   1  13 -15    8.32    3.61
   1  13 -14   59.59    9.98
   1  13 -13   -3.38    2.12
   1  13 -12   -1.48    3.22
   1  13 -12    0.69    3.49
  -1  13  11   57.99   11.83
   1  13 -11   56.21   11.62
   1  13 -11   44.07   10.41
  -1  13  10   17.70    8.41
   1  13 -10    9.86    7.15
   1  13 -10    9.06    4.83
   1  13  -9   11.39    9.73
  -1  13   9   15.86    7.67
   1  13  -9   11.03    7.25
   1  13  -9    6.60    2.55
   1  13  -9    4.39    4.09
   1  13  -8   91.33   18.61
  -1  13   8  116.94   18.73
   1  13  -8   79.63   17.36
   1  13  -8  124.14   20.74
   1  13  -8   92.37   14.77
   1  13  -8  112.03   20.61
   1  13  -7   75.21   17.34
   1  13  -7   80.41   16.95
   1  13  -7   84.51   13.30
   1  13  -7   73.66   16.68
  -1  13   7   89.59   17.35
   1  13  -7   66.03   12.07
   1  13  -7   47.85   12.90
   1  13  -6  194.29   28.36
   1  13  -6  188.34   25.82
   1  13  -6  211.38   22.23
  -1  13   6  182.14   24.49
   1  13  -6  196.68   23.46
   1  13  -6  162.24   24.87
   1  13  -6  213.33   28.32
   1  13  -5   32.62   10.46
  -1  13   5   23.45    7.74
   1  13  -5    4.86    4.17
  -1  13   5   27.16    9.54
   1  13  -5    9.16    6.45
   1  13  -5   30.54    9.26
   1  13  -5   16.79    7.89
  -1  13   5   24.91    7.88
   1  13  -5   18.06    9.91
   1  13  -4    8.31    6.93
  -1  13   4   18.74    7.32
   1  13  -4   25.95    9.68
   1  13  -4   25.49    9.43
   1  13  -4    8.87    6.91
   1  13  -4   16.01    6.61
  -1  13   4   13.59    5.33
  -1  13   4   13.47    7.25
  -1  13   4   14.87    6.87
   1  13  -3   93.77   20.49
  -1  13   3   96.46   17.08
  -1  13   3   78.56   16.38
   1  13  -3   83.05   17.21
   1  13  -3   94.85   16.23
  -1  13   3   81.74   13.10
   1  13  -3   87.10   16.77
  -1  13   3   88.78   17.23
   1  13  -3   63.48   15.85
   1  13  -2  186.67   22.24
  -1  13   2  162.27   18.39
   1  13  -2  155.62   21.93
  -1  13   2  159.63   21.85
   1  13  -2  143.56   21.25
   1  13  -2  226.32   30.09
   1  13  -2  191.45   27.95
  -1  13   2  190.06   24.48
  -1  13   2  177.46   23.63
   1  13  -1  108.36   21.64
  -1  13   1  108.71   21.48
  -1  13   1   60.59   14.76
   1  13  -1   70.83   13.26
   1  13  -1   71.83   15.04
  -1  13   1   72.13   15.71
  -1  13   1   50.79   10.01
  -1  13   1   62.07   15.35
   1  13  -1   93.30   19.69
  -1  13   0  288.47   34.16
   1  13   0  202.58   22.63
   1  13   0  228.19   27.63
  -1  13   0  190.17   25.66
  -1  13   0  233.42   28.19
   1  13   0  209.84   28.30
   1  13   0  248.09   31.35
  -1  13  -1   85.89   18.22
   1  13   1  103.78   19.57
  -1  13  -1   59.60   14.38
   1  13   1   82.36   14.30
  -1  13  -1   65.37   14.09
   1  13   1   71.55   16.18
  -1  13  -1   69.18   15.80
   1  13   1   95.39   18.67
  -1  13  -2  170.83   25.34
   1  13   2  163.19   19.80
  -1  13  -2  130.59   19.82
   1  13   2  186.31   24.88
  -1  13  -2  181.42   24.27
  -1  13  -2  123.81   20.19
   1  13   2  172.09   24.28
   1  13   2  168.43   24.37
  -1  13  -3   85.93   18.01
  -1  13  -3   65.39   14.04
   1  13   3  116.26   19.78
   1  13   3   84.79   14.20
   1  13   3   72.55   15.41
  -1  13  -3   82.92   16.56
  -1  13  -4    4.80    6.45
  -1  13  -4   19.69    7.92
   1  13   4   15.41    6.64
   1  13   4   10.43    5.73
  -1  13  -4   25.01    8.32
   1  13   4   14.56    8.08
  -1  13  -5   31.67   11.35
  -1  13  -5   21.38    9.43
   1  13   5   29.58   10.58
  -1  13  -5   22.09    8.04
   1  13   5   24.00    7.56
  -1  13  -5   15.83    6.40
  -1  13  -6  175.37   25.13
   1  13   6  215.09   23.37
   1  13   6  198.50   25.85
  -1  13  -6  198.23   22.43
  -1  13  -6  247.89   29.29
  -1  13  -6  180.56   24.11
  -1  13  -6  149.52   19.20
  -1  13  -7  105.53   19.73
  -1  13  -7   65.01   14.77
   1  13   7   77.09   14.03
   1  13   7   93.79   17.93
  -1  13  -7   71.22   12.80
  -1  13  -7   76.19   15.84
  -1  13  -7   67.96   13.66
  -1  13  -8  108.95   19.21
   1  13   8  106.95   17.26
   1  13   8  120.56   19.39
  -1  13  -8   77.60   13.44
  -1  13  -8  106.34   18.35
  -1  13  -8   89.72   15.96
  -1  13  -9   12.26    6.57
  -1  13  -9   19.36    9.81
  -1  13  -9    0.96    4.62
  -1  13 -10   14.16    6.67
  -1  13 -10    5.42    4.18
  -1  13 -10   11.82    5.84
  -1  13 -10    8.60    4.90
  -1  13 -11   54.51   11.54
  -1  13 -11   43.93   10.04
  -1  13 -11   43.19   11.32
  -1  13 -12    6.80    6.31
  -1  13 -12   -6.29    5.41
  -1  13 -12   -1.40    3.28
  -1  13 -13    6.94    5.10
  -1  13 -13    0.72    3.32
  -1  13 -14   67.96   11.98
  -1  13 -14   62.93   12.36
  -1  13 -15    1.12    1.80
  -1  13 -15    3.66    2.10
   1  13  16    3.81    2.57
  -1  13 -16    3.72    3.53
  -1  13 -16    6.63    3.36
   1  13  17    2.32    2.31
  -1  13 -17    4.50    3.54
  -1  13 -17    4.65    2.70
   1  13  18    3.01    1.97
  -1  13 -18   -1.48    1.44
  -1  14  17   -1.04    1.15
   1  14 -17    3.07    1.81
  -1  14  16    1.38    1.41
   1  14 -16    2.78    2.47
   1  14 -15    1.66    2.45
   1  14 -14   -0.48    2.88
   1  14 -13    3.29    2.54
   1  14 -12    5.84    4.03
   1  14 -12    0.61    2.18
  -1  14  11   51.29   10.90
   1  14 -11   47.61   10.47
   1  14 -11   37.67    8.75
  -1  14  10    2.44    3.71
   1  14 -10   12.93    5.71
   1  14 -10    9.70    5.74
  -1  14   9    0.89    3.96
   1  14  -9    0.70    2.25
   1  14  -9    4.89    5.60
   1  14  -8   -6.06    4.19
  -1  14   8    5.62    5.80
   1  14  -8    2.04    1.83
   1  14  -8   11.89    7.48
   1  14  -7   13.78    8.14
  -1  14   7    7.74    3.21
  -1  14   7   22.51    7.40
   1  14  -7   19.85    9.36
   1  14  -7    6.87    7.15
   1  14  -6   16.65    5.60
   1  14  -6   32.90   10.99
  -1  14   6   34.44   10.97
   1  14  -6   20.36    6.87
  -1  14   6   20.78    5.91
   1  14  -6   10.49    6.85
  -1  14   5   -2.45    2.49
   1  14  -5    0.79    3.06
  -1  14   5   -4.93    4.40
  -1  14   5    2.06    2.19
   1  14  -5   -4.08    3.32
   1  14  -5   -5.30    3.79
   1  14  -5    0.96    5.19
  -1  14   4    0.87    4.28
  -1  14   4   -0.67    2.74
   1  14  -4    2.09    5.19
   1  14  -4   -9.90    7.03
   1  14  -4    3.32    3.14
  -1  14   4    1.96    7.34
   1  14  -4    1.00    5.80
  -1  14   4    5.85    5.30
  -1  14   3   81.15   15.72
   1  14  -3  116.86   20.70
  -1  14   3   80.74   12.67
  -1  14   3   83.16   15.36
   1  14  -3   67.23   14.49
   1  14  -3   75.08   14.85
   1  14  -3   94.02   15.19
   1  14  -3   83.16   17.81
  -1  14   3   77.84   14.89
   1  14  -2   22.55    8.60
  -1  14   2   14.77    6.87
  -1  14   2   19.65    9.79
   1  14  -2    5.63    5.17
   1  14  -2   20.65    6.64
  -1  14   2   19.11    6.35
   1  14  -2   34.39   11.31
  -1  14   2   12.07    5.67
  -1  14   1   51.11   12.90
   1  14  -1   51.11   14.76
   1  14  -1   65.86   12.91
  -1  14   1   47.02   12.76
   1  14  -1   58.19   13.35
  -1  14   1   67.96   14.79
   1  14  -1   61.79   13.41
   1  14   0    7.27    5.44
  -1  14   0   10.48    6.92
  -1  14   0   -3.13    5.93
   1  14   0    2.11    3.99
   1  14   0    3.34    2.62
   1  14   0    7.34    7.29
  -1  14   0   -5.26    6.51
  -1  14  -1   57.82   13.06
  -1  14  -1   72.30   17.07
   1  14   1   62.57   12.58
  -1  14  -1   58.38   13.54
   1  14   1   58.45   13.43
  -1  14  -1   57.27   13.73
   1  14   1   46.80   12.95
  -1  14  -2   29.67   11.16
  -1  14  -2   29.50    9.63
   1  14   2   31.22    9.10
  -1  14  -2   16.73    6.51
   1  14   2   19.82    8.07
   1  14   2   16.73    7.09
  -1  14  -2   12.71    6.37
  -1  14  -3   69.54   15.67
   1  14   3   70.86   12.67
   1  14   3   65.14   13.48
  -1  14  -3   58.36   12.77
   1  14   3   70.10   16.11
  -1  14  -3   62.79   14.34
  -1  14  -4    2.41    5.34
   1  14   4    3.85    3.52
   1  14   4   -4.03    3.38
  -1  14  -4    9.48    6.30
   1  14   4    7.07    7.14
  -1  14  -4   -9.26    5.72
  -1  14  -5   -2.11    4.91
  -1  14  -5  -12.98    8.98
   1  14   5    5.44    3.52
   1  14   5   -7.96    4.46
  -1  14  -5   -1.65    3.72
  -1  14  -5   -5.72    4.94
  -1  14  -6   26.66    9.35
  -1  14  -6   30.73   10.93
   1  14   6   28.24    9.11
  -1  14  -6   23.00    7.63
   1  14   6   28.22    8.58
  -1  14  -6   18.34    6.84
  -1  14  -6   10.82    6.11
  -1  14  -7   31.62    9.98
  -1  14  -7   19.89    6.34
   1  14   7    7.50    5.14
   1  14   7   29.87    9.75
  -1  14  -7   14.47    6.34
  -1  14  -7   18.00    6.65
  -1  14  -8    0.97    4.81
   1  14   8   12.12    7.64
   1  14   8    5.92    4.70
  -1  14  -8    4.32    5.31
  -1  14  -8    8.43    5.49
  -1  14  -9    9.15    5.03
   1  14   9    8.02    5.16
  -1  14  -9    1.76    3.37
  -1  14  -9    6.11    4.68
   1  14  10    2.14    3.73
  -1  14 -10    5.64    4.35
  -1  14 -10    0.85    3.53
  -1  14 -11   60.96   11.89
  -1  14 -11   32.57    9.46
  -1  14 -12   -3.04    4.48
  -1  14 -12    2.57    2.09
  -1  14 -12    6.50    4.90
  -1  14 -13    5.77    3.38
  -1  14 -13   12.85    6.34
  -1  14 -13   10.60    4.39
   1  14  14    0.52    2.07
  -1  14 -14   -2.81    2.41
  -1  14 -14    0.50    2.00
   1  14  15    1.75    1.72
  -1  14 -15   -5.80    3.69
  -1  14 -15   -5.32    3.58
   1  14  16    0.71    1.57
  -1  14 -16   -2.95    2.06
  -1  14 -16    3.27    2.95
   1  14  17    1.41    0.92
  -1  14 -17    2.79    1.74
  -1  14 -17   -0.67    2.41
  -1  15  15   -1.20    1.77
   1  15 -15   -1.79    2.15
  -1  15  14    2.23    2.59
   1  15 -14    3.61    2.21
  -1  15  13   -0.44    2.53
   1  15 -13   -0.84    1.54
  -1  15  12   32.18    7.03
   1  15 -12   27.92    6.02
   1  15 -12   29.56    6.72
  -1  15  11   -1.62    2.87
  -1  15  11   -1.72    2.78
   1  15 -11   -2.39    3.94
   1  15 -11   -0.52    2.55
  -1  15  10   77.38   11.22
  -1  15  10   69.02   12.08
   1  15 -10   54.12    9.73
   1  15 -10   53.05   10.79
  -1  15   9   -4.48    5.79
  -1  15   9    6.45    3.61
   1  15  -9    0.82    5.15
  -1  15   8    4.89    3.11
  -1  15   8   -0.60    1.72
   1  15  -8   -4.60    5.63
  -1  15   7    8.99    5.02
  -1  15   7    9.47    4.71
   1  15  -7    7.07    7.67
   1  15  -6   11.16    4.48
  -1  15   6   13.33    6.69
  -1  15   6   18.09    5.89
   1  15  -6    2.07    5.11
   1  15  -5    3.45    5.13
  -1  15   5    3.66    3.10
  -1  15   5    1.79    5.09
   1  15  -5   12.53    5.64
   1  15  -5    0.90    3.71
  -1  15   4   81.11   13.87
  -1  15   4   96.22   16.30
  -1  15   4   87.21   12.92
   1  15  -4   84.10   13.54
   1  15  -4   94.80   16.27
   1  15  -4   81.27   15.40
  -1  15   4  111.39   17.49
  -1  15   3    6.77    5.78
  -1  15   3   12.58    7.56
   1  15  -3   13.20    6.32
   1  15  -3    2.43    2.73
  -1  15   3    3.71    3.94
  -1  15   3   10.31    7.57
   1  15  -3   10.22    6.07
  -1  15   2  152.14   20.76
   1  15  -2  150.13   18.64
  -1  15   2  120.74   15.18
  -1  15   2  126.78   19.52
  -1  15   2  145.66   20.23
   1  15  -2  117.76   20.48
  -1  15   1    6.51    4.76
  -1  15   1    4.56    4.50
   1  15  -1    8.68    6.13
   1  15  -1   -2.37    4.76
  -1  15   1    9.72    6.43
   1  15  -1   19.59   10.50
  -1  15   0   13.32    6.68
   1  15   0   24.40    8.37
   1  15   0   22.00    7.33
  -1  15   0   27.67    9.69
   1  15   0   20.34   10.47
  -1  15  -1    0.96    3.12
  -1  15  -1    4.46    5.65
   1  15   1    3.86    6.25
   1  15   1    3.08    2.08
  -1  15  -1    3.98    5.03
   1  15   1   -1.09    4.36
  -1  15  -2  138.60   21.87
  -1  15  -2  107.53   17.85
   1  15   2  120.97   16.49
   1  15   2  150.08   20.59
  -1  15  -2  102.79   16.75
   1  15   2  127.12   19.72
  -1  15  -2  122.66   18.73
  -1  15  -3    1.91    3.70
   1  15   3    7.31    4.93
   1  15   3   10.08    4.95
  -1  15  -3   -1.67    4.75
  -1  15  -3   13.64    8.27
   1  15   3   10.82    3.41
   1  15   4   95.20   15.63
   1  15   4   79.23   12.98
  -1  15  -4   99.16   15.53
   1  15   4   77.46   15.45
  -1  15  -4  105.77   17.22
  -1  15  -5    2.79    4.04
   1  15   5    2.64    3.42
  -1  15  -5   13.21    6.52
   1  15   5    3.53    4.39
  -1  15  -6   19.44    8.45
   1  15   6    4.25    5.08
   1  15   6   10.95    4.84
  -1  15  -6    2.99    4.10
  -1  15  -6    6.22    8.05
  -1  15  -6    8.84    4.52
  -1  15  -7    3.59    5.40
   1  15   7    1.61    4.07
   1  15   7    1.33    2.29
  -1  15  -7    4.31    3.07
  -1  15  -7    6.01    4.82
  -1  15  -7    2.85    4.72
  -1  15  -8   -3.39    3.18
   1  15   8   10.36    4.82
   1  15   8    0.74    3.62
  -1  15  -8    8.08    5.14
  -1  15  -8    4.16    3.87
   1  15   9    2.50    2.16
   1  15   9    6.52    4.86
  -1  15  -9   -0.77    4.25
  -1  15  -9    6.61    4.07
   1  15  10   70.11   11.48
  -1  15 -10   97.70   14.89
  -1  15 -10   57.86   10.86
   1  15  11   -1.69    3.20
  -1  15 -11   -2.61    4.13
  -1  15 -11   -3.62    4.40
  -1  15 -12   36.37    7.30
  -1  15 -12   35.00    7.94
  -1  15 -13    2.84    2.03
  -1  15 -13    1.02    1.88
  -1  15 -14    1.73    2.57
   1  15  15    1.96    1.55
  -1  15 -15    1.08    1.49
  -1  16  14    3.03    1.92
   1  16 -14   -0.91    1.13
  -1  16  13    4.96    2.41
   1  16 -13    6.55    2.65
  -1  16  12   -1.81    2.47
   1  16 -12    5.71    3.01
  -1  16  11   53.94    8.43
  -1  16  11   47.43    7.57
   1  16 -11   49.01    8.16
  -1  16  10    8.24    4.19
  -1  16  10    3.51    2.21
   1  16 -10    2.82    3.13
  -1  16   9   19.49    5.32
  -1  16   9   23.79    6.56
   1  16  -9   15.77    6.98
  -1  16   8   -1.33    3.63
  -1  16   8    3.87    2.93
   1  16  -8   -2.24    3.40
  -1  16   7   -0.72    3.79
  -1  16   7    2.49    1.89
   1  16  -7    1.62    4.80
  -1  16   6    0.51    2.58
  -1  16   6    0.76    5.02
   1  16  -6   -1.72    3.80
  -1  16   5   59.61   12.45
  -1  16   5   56.01    9.37
   1  16  -4   -0.62    3.19
   1  16  -4    8.78    3.69
  -1  16   4    4.75    5.86
  -1  16   4   -1.10    2.50
   1  16  -4    9.07    8.27
   1  16  -4    0.94    4.07
  -1  16   4    0.81    6.45
  -1  16   3  139.40   18.28
  -1  16   3  141.86   15.57
   1  16  -3  144.80   16.92
  -1  16   3  119.97   16.41
   1  16  -3  154.83   21.68
  -1  16   3  149.00   19.55
  -1  16   2   -3.93    5.05
  -1  16   2   -7.20    4.23
   1  16  -2   10.34    5.64
   1  16  -2   -3.00    5.78
  -1  16   2   -3.45    5.18
  -1  16   1   14.78    6.07
  -1  16   1   15.35    6.30
   1  16  -1   16.09    5.83
   1  16  -1   18.97    7.46
  -1  16   1    8.02    6.10
   1  16  -1    6.01    5.70
  -1  16   0    0.84    3.42
   1  16   0   -4.29    5.37
   1  16   0    0.70    1.94
  -1  16   0   -4.52    6.67
  -1  16  -1   13.63    6.93
   1  16   1   11.70    6.75
  -1  16  -1   17.69    5.47
   1  16   1    9.08    4.52
   1  16   1    4.75    4.49
  -1  16  -1   30.93    9.09
  -1  16  -2   -3.40    4.85
   1  16   2    2.78    3.74
   1  16   2    0.82    4.30
  -1  16  -2   -1.56    3.97
  -1  16  -2    2.70    3.63
   1  16   2    2.73    5.39
  -1  16  -3  112.28   16.62
   1  16   3  151.72   19.27
   1  16   3  162.96   18.12
  -1  16  -3  155.02   19.18
  -1  16  -3  126.46   19.05
   1  16   3  129.18   18.71
   1  16   4    4.63    4.15
  -1  16  -4    2.92    3.67
   1  16   4    6.22    3.97
   1  16   4    5.87    4.29
  -1  16  -4    0.86    4.28
  -1  16  -5   50.33   11.12
  -1  16  -5   63.96   11.80
   1  16   5   51.20   10.33
   1  16   5   56.79   10.23
  -1  16  -6    3.90    3.16
   1  16   6   -1.44    4.50
  -1  16  -6   -1.35    4.89
   1  16   6    5.44    4.33
  -1  16  -7    1.52    3.19
   1  16   7    4.06    2.86
   1  16   7    2.67    2.84
  -1  16  -7    2.96    2.81
   1  16   8    3.33    2.53
   1  16   8    3.01    3.45
  -1  16  -8   -4.94    4.12
  -1  16  -8    6.48    4.33
   1  16   9   22.64    6.09
   1  16   9   24.14    5.63
  -1  16  -9   23.22    6.58
  -1  16  -9   22.59    6.09
   1  16  10    1.97    2.49
  -1  16 -10    0.57    2.67
  -1  16 -10    4.94    3.60
   1  16  11   55.73    8.59
  -1  16 -11   55.82    9.16
  -1  16 -11   51.36    9.10
   1  16  12   -0.81    2.31
  -1  16 -12    1.09    2.22
  -1  16 -12    0.87    2.51
  -1  16 -13    5.16    2.73
  -1  16 -14   -1.50    2.03
  -1  17  12    1.76    1.44
  -1  17  11    0.59    1.58
  -1  17  10   19.58    5.02
  -1  17  10   10.14    3.16
   1  17 -10   11.23    4.20
  -1  17   9    5.33    2.85
  -1  17   9    5.83    3.71
   1  17  -9    0.50    2.25
  -1  17   8    0.76    1.87
  -1  17   8    0.52    2.98
   1  17  -8   -1.72    2.87
  -1  17   7    5.71    2.96
  -1  17   7   -1.19    2.44
   1  17  -7    4.38    2.52
  -1  17   6   -1.23    3.68
  -1  17   6    2.08    2.06
   1  17  -6   -3.38    4.63
  -1  17   5    8.33    5.41
  -1  17   5    3.92    1.78
  -1  17   4   39.19    7.38
  -1  17   4   36.31    8.79
   1  17  -4   26.75    7.03
  -1  17   4   40.23    9.31
   1  17  -3    3.14    1.89
  -1  17   3    2.02    3.24
  -1  17   3    4.93    3.59
   1  17  -3    0.80    4.41
  -1  17   2   -1.36    5.09
   1  17  -2    6.10    3.30
   1  17  -2    9.83    6.16
  -1  17   2    2.21    4.53
   1  17  -1   -0.74    4.08
   1  17  -1    3.45    3.59
  -1  17   1    2.77    4.11
   1  17  -1   -5.78    5.86
  -1  17   1    4.57    4.45
  -1  17   0    0.72    3.08
   1  17   0    5.75    4.71
   1  17   0    5.28    2.50
  -1  17   0   -4.69    6.27
   1  17   0   11.41    5.57
  -1  17  -1    2.91    4.83
   1  17   1   -4.22    5.38
  -1  17  -1   -4.21    3.31
   1  17   1    3.55    3.35
   1  17   1   -7.14    4.66
  -1  17  -1    5.55    4.34
  -1  17  -2    6.53    4.57
   1  17   2    5.53    4.13
  -1  17  -2   12.94    5.81
   1  17   2    3.55    2.20
   1  17   2   -2.29    4.72
  -1  17  -2    5.54    4.78
  -1  17  -3    4.25    3.11
  -1  17  -3    4.61    2.91
   1  17   3    5.39    3.56
   1  17   3   -1.77    2.05
   1  17   3    0.73    3.60
  -1  17  -3    6.19    5.65
  -1  17  -4   31.68    8.25
   1  17   4   39.12    8.84
   1  17   4   39.94    8.59
  -1  17  -4   42.90   10.37
   1  17   4   45.96    9.86
  -1  17  -5    3.03    3.45
   1  17   5    4.37    3.93
   1  17   5    2.71    2.98
   1  17   6   -1.03    3.48
   1  17   6   -2.34    4.51
   1  17   7    1.07    2.29
   1  17   7    3.43    2.97
  -1  17  -7    1.23    2.77
   1  17   8    4.62    2.64
   1  17   8    8.04    4.47
  -1  17  -8   -0.57    3.32
   1  17   9    7.32    3.54
  -1  17  -9    5.61    4.14
   1  17  10   15.77    4.26
  -1  17 -10   18.00    5.38
   1  17  11   -1.41    2.09
  -1  17 -11   -3.74    3.07
  -1  17 -11    3.77    2.02
   1  17  12    2.14    1.62
  -1  17 -12   -0.26    1.08
  -1  17 -12    1.72    1.64
  -1  18  10    0.25    1.62
  -1  18  10    3.13    1.76
  -1  18   9    5.30    2.13
  -1  18   9    6.65    2.33
   1  18  -9    6.39    3.87
  -1  18   8    4.68    2.02
  -1  18   8    3.40    1.75
   1  18  -8   -0.42    2.03
  -1  18   7   37.05    7.02
  -1  18   7   30.91    5.36
   1  18  -7   32.44    6.83
  -1  18   6    2.16    1.77
  -1  18   6   -2.37    3.63
  -1  18   5    1.90    1.71
  -1  18   5    1.01    3.19
  -1  18   4   -3.15    2.62
   1  18  -4   -1.78    2.96
  -1  18   3    3.77    3.89
  -1  18   3    4.82    3.96
   1  18  -3    1.87    2.34
   1  18  -2   -1.58    1.60
  -1  18   2    4.94    4.10
  -1  18   2    1.15    2.76
   1  18  -2    5.15    3.00
  -1  18   1   18.88    5.51
   1  18  -1   29.49    6.99
   1  18  -1   22.44    5.28
  -1  18   1   26.18    7.51
   1  18  -1   16.28    5.83
   1  18   0    2.32    4.07
   1  18   0    0.44    2.28
   1  18   0    5.80    4.17
  -1  18   0    5.72    4.56
   1  18   1   22.81    5.93
  -1  18  -1   19.66    5.80
   1  18   1   21.00    5.70
   1  18   1   26.37    7.35
  -1  18  -1   22.01    7.27
  -1  18  -2   -2.23    3.17
   1  18   2   -1.39    1.92
   1  18   2   -1.68    3.19
  -1  18  -2    6.46    3.55
   1  18   2   -4.79    4.49
  -1  18  -3    0.54    3.17
   1  18   3   -1.65    2.38
   1  18   3    6.82    3.88
   1  18   3    5.06    4.57
  -1  18  -3    3.14    3.54
  -1  18  -4   -0.51    3.17
   1  18   4    2.10    2.59
   1  18   4   -2.22    2.58
  -1  18  -4   -4.80    4.20
   1  18   5   -0.86    2.14
   1  18   5   -0.50    3.16
  -1  18  -5   -2.83    3.43
   1  18   6    5.48    3.29
   1  18   6    3.31    1.75
   1  18   7   49.77    7.71
   1  18   7   46.44    7.63
  -1  18  -7   32.94    6.67
   1  18   8    4.84    3.07
   1  18   8    5.46    2.69
  -1  18  -8   -0.86    3.29
   1  18   9    3.66    2.13
  -1  18  -9    4.46    2.55
   1  18  10    1.78    1.84
  -1  18 -10    3.58    2.15
  -1  19   8   20.40    3.99
  -1  19   7    4.24    2.53
   1  19  -7    4.23    2.69
  -1  19   6   18.57    4.50
  -1  19   5    9.39    3.36
  -1  19   4    0.40    1.75
   1  19  -4   -3.51    3.88
  -1  19   3    9.54    4.10
  -1  19   3   -2.56    2.89
   1  19  -3    7.95    3.56
  -1  19   2   13.58    4.04
  -1  19   2   16.02    4.89
   1  19  -2   10.16    3.70
  -1  19   1   18.48    5.22
   1  19  -1    3.40    2.71
  -1  19   1   20.92    5.87
   1  19   0   30.42    6.77
  -1  19   0   33.33    7.12
  -1  19  -1   19.77    5.52
   1  19   1    7.11    2.49
  -1  19  -1   17.87    5.11
   1  19   1    7.28    3.86
  -1  19  -2   13.14    3.90
   1  19   2   14.66    3.66
  -1  19  -2    7.20    4.28
   1  19   3    6.80    2.66
  -1  19  -3    7.00    3.71
   1  19   4    2.45    2.06
  -1  19  -4   -1.78    2.60
   1  19   5    6.86    2.72
  -1  19  -5    7.41    3.01
   1  19   6   22.28    4.50
   1  19   7    3.75    2.12
  -1  19  -7    2.00    2.66
   1  19   8   17.84    3.68
  -1  19  -8   10.35    3.19
  -1  20   4   18.80    4.26
  -1  20   3    1.49    1.40
  -1  20   2    7.38    2.67
  -1  20   2    7.93    2.73
  -1  20   1   13.43    4.10
  -1  20   1   10.89    3.48
  -1  20   0   13.11    3.85
  -1  20  -1   15.98    4.54
  -1  20  -2   10.51    3.93
  -1  20  -3    0.96    1.76
   1  20   4    9.08    2.13
  -1  20  -4    9.05    2.80
   2   0 -23   -0.38    1.77
   2   0 -22    5.11    3.83
   2   0 -21   10.30    5.27
   2   0 -20    0.77    3.61
   2   0 -19   -1.93    4.33
   2   0 -18   83.83   16.87
  -2   0  17   -1.81    7.44
   2   0 -17  -11.15    7.22
   2   0 -17    8.94    7.14
   2   0 -16   -3.34    6.35
   2   0 -16    3.21    5.18
   2   0 -15    3.45    7.35
   2   0 -15   -8.51    7.03
   2   0 -14   67.28   19.50
   2   0 -14   66.02   19.05
   2   0 -13   10.87    9.08
   2   0 -12  154.67   29.66
   2   0 -11   18.89    9.74
   2   0 -10  579.23   58.78
   2   0  -9   36.29   12.70
   2   0  -8  680.70   61.47
   2   0  -7   55.72   17.06
   2   0  -6  855.26   57.58
   2   0  -6  799.54   54.42
   2   0  -5   18.20    8.11
   2   0  -5    3.79    6.14
   2   0  -4  810.30   46.92
   2   0  -3    6.37    5.61
   2   0  -2 4400.95  129.17
  -2   0   1   12.07    5.33
  -2   0   0 2169.74   72.53
  -2   0  -1   13.84    5.53
  -2   0  -2 3599.64  105.24
  -2   0  -3    1.10    5.21
  -2   0  -4  701.45   40.51
  -2   0  -5    7.62    7.51
   2   0   5    2.90    8.53
   2   0   6  766.76   66.70
  -2   0  -6  774.59   56.15
   2   0   7   86.13   23.64
  -2   0  -7   34.09   15.84
   2   0   8  968.83   92.71
   2   0   9   28.63   19.57
  -2   0  -9   52.24   18.13
   2   0  10 1111.01  104.12
  -2   0 -10  932.88   88.29
  -2   0 -11   31.46   11.75
   2   0  11   77.08   26.98
   2   0  12  235.07   48.73
  -2   0 -12  206.23   38.56
  -2   0 -13    2.27    5.89
   2   0  13    8.24   10.71
   2   0  14   48.39   15.61
  -2   0 -14   52.07   20.23
  -2   0 -14   79.69   22.38
  -2   0 -15    3.81    7.42
   2   0  15  -11.77    9.92
  -2   0 -15    7.92    9.88
   2   0  16    2.18   10.54
  -2   0 -16    8.63    7.01
  -2   0 -16    8.75    5.26
  -2   0 -17   -4.65    6.92
   2   0  17    5.87    7.31
  -2   0 -17   21.11   12.60
  -2   0 -18   81.69   18.43
  -2   0 -19   -2.98    5.25
  -2   0 -20   -1.58    5.00
  -2   0 -21    7.22    4.20
   2   0  22    0.53    2.21
  -2   0 -22   -0.43    2.35
   2   0  23   -0.36    1.96
   2   1 -23    2.73    1.97
   2  -1 -23    2.73    2.20
   2  -1 -22   -4.35    4.11
   2   1 -22    5.80    2.91
   2   1 -22    8.14    4.73
   2  -1 -21    6.88    5.49
   2   1 -21   -0.58    2.68
   2   1 -21    2.43    3.69
   2   1 -20   -4.78    4.51
   2   1 -20    4.26    3.94
   2  -1 -19   40.09   11.12
   2   1 -19   48.08   12.00
   2   1 -18   17.97    9.51
   2  -1 -18   12.87    6.46
   2  -1 -17   60.18   15.71
  -2  -1  17   56.80   16.75
   2  -1 -17  102.11   21.95
   2  -1 -16    4.83    9.86
   2  -1 -16   16.81   12.33
   2  -1 -15    8.27    9.72
   2  -1 -15    4.85    7.73
   2  -1 -14   40.36   15.26
   2  -1 -14   27.06   13.35
   2  -1 -13    1.69    7.20
   2  -1 -12    8.54    6.49
   2  -1 -11  777.46   64.74
   2  -1 -10  306.19   40.43
   2  -1  -9   21.69   12.28
   2   1  -9   33.31    6.80
   2  -1  -8   34.42   14.95
   2   1  -8   27.63    6.59
   2  -1  -7   68.30   17.87
   2   1  -7  115.33   13.13
   2  -1  -6 1603.70   79.41
   2  -1  -6 1668.14   82.94
   2   1  -6 1661.09   59.38
   2  -1  -5  995.55   54.79
   2   1  -5 1011.80   41.46
   2  -1  -4  317.87   26.64
   2  -1  -4  352.75   28.98
   2  -1  -3 2990.68   99.89
  -2  -1   2 1861.09   67.73
   2  -1  -2 1973.26   70.07
  -2  -1   1   21.70    5.92
  -2  -1   0   76.72   10.48
  -2  -1  -1   21.40    5.70
  -2  -1  -2 1613.46   55.54
   2  -1   2 1273.04   54.90
  -2  -1  -3 2506.99   84.93
   2  -1   3 2741.86  101.04
  -2  -1  -4  287.23   24.48
   2  -1   4  316.86   33.82
  -2  -1  -5 1061.72   57.16
   2  -1   5 1081.12   70.75
  -2  -1  -6 1630.52   84.16
   2  -1   6 1707.19  100.87
   2  -1   7  132.43   28.10
  -2  -1  -7  106.61   24.65
   2  -1   8   10.24   16.07
   2  -1   9   47.00   18.60
  -2  -1  -9   44.76   23.47
  -2  -1 -10  393.20   56.05
   2  -1  10  542.73   72.81
   2  -1  11 1307.92  111.29
  -2  -1 -11 1221.05  100.65
   2  -1  12    8.93   11.31
  -2  -1 -12   12.23   10.26
  -2  -1 -13    6.74   15.98
   2  -1  13   16.72   14.13
  -2  -1 -14   24.65   12.61
   2  -1  14   12.89    7.65
  -2  -1 -14   38.97   18.75
  -2   1 -14   22.84   12.58
   2  -1  15   11.87   13.65
  -2  -1 -15    5.60    8.38
  -2  -1 -15   23.37   13.84
  -2   1 -15    7.92    6.29
  -2  -1 -16   10.16    6.84
   2  -1  16   -4.33   10.28
  -2  -1 -16    1.39    3.76
  -2   1 -16    2.98    4.88
   2  -1  17   68.07   20.41
  -2  -1 -17   94.00   20.02
  -2   1 -17   85.76   19.56
  -2  -1 -17   83.47   17.24
  -2   1 -18    4.85    5.35
  -2  -1 -18   14.71    5.59
  -2  -1 -19   55.31   12.31
  -2   1 -19   40.58   12.32
  -2  -1 -20    4.24    3.45
  -2   1 -20   -1.69    5.71
  -2   1 -21    1.98    3.59
   2  -1  22   -0.51    1.73
  -2   1 -22    1.91    2.33
   2  -1  23    4.53    2.37
  -2   1 -23    2.46    2.09
   2  -2 -23    3.57    2.53
   2   2 -23    0.39    1.99
   2   2 -22   -1.99    2.43
   2  -2 -22   -0.47    2.27
   2   2 -22    1.17    2.42
   2  -2 -21    1.40    2.77
   2   2 -21   -4.12    4.44
   2   2 -21   -0.82    4.64
   2   2 -20   14.72    7.08
   2   2 -20    8.67    4.62
   2   2 -19   22.80    9.92
   2   2 -18  225.09   29.26
  -2  -2  17   15.83    7.39
  -2   2  17   22.82   12.19
   2  -2 -17   52.36   14.88
   2   2 -17   35.36   12.87
   2   2 -17    9.06    6.12
   2  -2 -17   29.89    9.88
   2   2 -17   28.89   14.17
   2   2 -16   86.45   20.71
   2  -2 -16   65.52   17.64
   2  -2 -16   38.13   12.13
   2   2 -16   65.01   16.75
   2   2 -15   58.92   18.11
   2  -2 -15   33.45   12.10
   2   2 -15   36.02   14.95
   2  -2 -15   38.74   12.81
   2  -2 -14   -8.05   10.58
   2   2 -14    1.72    5.92
   2  -2 -14    1.62    6.42
   2   2 -14   -1.79    5.56
   2   2 -13   17.41   10.55
   2  -2 -13    9.71    5.58
   2   2 -12  458.42   50.20
   2  -2 -12  379.14   43.30
   2  -2 -11  304.48   38.67
   2   2 -11  387.51   45.10
   2  -2 -10  888.75   67.67
   2   2 -10  959.40   71.88
   2   2  -9   11.09    8.03
   2  -2  -9   27.17   14.66
   2   2  -9   16.95    6.86
   2  -2  -8  143.74   25.14
   2   2  -8  129.81   24.13
   2   2  -8  118.11   16.58
   2  -2  -7  243.04   30.27
   2   2  -7  212.13   28.37
   2   2  -7  221.38   22.28
   2  -2  -6   55.10   13.53
   2   2  -6   51.70   15.68
   2  -2  -6   56.78   16.19
   2   2  -6   71.43   17.30
   2   2  -6   49.93   11.09
   2   2  -5  177.85   23.19
   2  -2  -5  174.51   22.20
   2  -2  -5  165.96   20.31
   2   2  -5  165.70   20.90
   2   2  -5  166.33   18.29
   2  -2  -4 3438.74  112.22
   2  -2  -4 3702.36  116.83
   2   2  -4 3459.12  113.42
   2   2  -4 3312.11  109.07
   2  -2  -3   47.68    9.86
   2   2  -3   48.22    9.17
  -2   2   3   52.28    5.01
   2   2  -3   29.96    9.09
  -2  -2   2  374.90   24.57
  -2   2   2  394.81   25.91
  -2   2   1  760.44   35.12
  -2  -2   1  817.62   36.79
  -2  -2   0  267.80   19.08
  -2   2   0  290.82   20.03
  -2  -2  -1  749.99   33.46
  -2   2  -1  713.82   32.54
  -2  -2  -2  324.85   22.00
   2  -2   2  276.97   21.78
   2   2   2  279.93   21.13
   2   2   3   36.72   10.88
  -2  -2  -3   47.81    9.52
  -2   2  -3   60.40   10.20
   2  -2   3   48.21   11.68
   2  -2   4 3668.74  132.44
  -2  -2  -4 3355.41  110.44
  -2   2  -4 3388.59  108.86
   2   2   4 3333.43  123.63
  -2   2  -5  163.05   21.39
   2   2   5  155.60   25.99
   2  -2   5  152.11   25.83
  -2  -2  -5  154.11   21.27
   2   2   5  167.68   12.93
  -2   2  -6   56.74   15.72
   2   2   6   52.31   18.01
   2  -2   6   70.64   22.34
  -2  -2  -6   55.10   15.59
   2   2   6   54.34    7.35
   2   2   7  248.08   40.92
  -2   2  -7  212.39   34.22
  -2  -2  -7  279.21   40.46
   2  -2   7  250.47   40.05
   2   2   8  184.96   35.78
   2  -2   8  117.65   31.76
   2  -2   9   24.81   14.80
   2   2   9   40.84   17.09
  -2  -2  -9   53.60   24.43
  -2   2  -9    2.31    9.21
   2  -2  10 1387.90  114.43
   2   2  10 1079.74   95.39
  -2   2 -10  995.26   88.30
  -2  -2 -10 1252.28  102.41
   2   2  11  332.16   51.91
  -2  -2 -11  330.98   50.77
  -2   2 -11  369.18   49.97
   2  -2  11  441.86   63.78
   2   2  12  521.23   63.62
  -2  -2 -12  583.68   64.73
  -2   2 -12  440.54   55.18
   2  -2  12  592.49   71.39
   2   2  13    7.22    9.88
  -2   2 -13   10.23   14.01
  -2  -2 -13   22.29   16.94
   2  -2  13   39.49   17.52
  -2   2 -14   -1.91    6.86
  -2  -2 -14    2.03    6.13
   2   2  14    2.25    9.61
   2  -2  14   -5.22   12.99
  -2   2 -14   -2.96    7.87
  -2   2 -14    6.22    8.24
   2   2  15   43.90   17.09
   2  -2  15   52.57   20.10
  -2  -2 -15   47.74   15.92
  -2   2 -15   56.23   17.41
  -2   2 -15   39.73   13.74
  -2   2 -15   51.28   14.47
   2   2  16   88.98   22.61
  -2   2 -16   64.43   17.81
  -2  -2 -16   54.71   16.92
   2  -2  16   84.24   22.60
  -2   2 -16   77.83   17.01
  -2   2 -16   91.43   21.49
  -2   2 -17   20.46   10.38
  -2  -2 -17    4.45    8.16
   2   2  17   24.82   10.88
   2  -2  17   42.21   15.89
  -2   2 -17   25.04   10.56
  -2   2 -18  176.62   26.90
  -2   2 -19    9.68    8.32
  -2   2 -20    9.65    6.11
  -2   2 -21   -4.11    3.62
   2   2  22    5.11    3.78
   2  -2  22    0.97    2.06
  -2   2 -22    5.06    3.05
   2  -2  23    3.71    2.41
   2   2  23    3.06    2.35
  -2   2 -23   -1.72    2.50
   2   3 -23    2.68    1.80
   2   3 -23    4.39    1.98
   2  -3 -22    3.28    2.51
   2   3 -22    4.01    3.61
   2   3 -22    5.20    2.39
   2   3 -21    1.78    1.89
   2  -3 -21    4.27    4.38
   2   3 -21   -0.81    3.53
   2   3 -20    2.13    4.85
   2   3 -20    8.29    6.17
   2   3 -19   49.48   15.92
   2   3 -19   72.48   15.19
   2   3 -18   43.82   14.33
   2  -3 -17  207.73   29.24
   2   3 -17  225.04   32.70
   2  -3 -16   39.38   13.92
   2   3 -16    6.62    7.90
  -2  -3  16   12.80    9.73
   2   3 -16   21.62   10.95
   2  -3 -16   29.96   11.99
   2  -3 -15    4.46    5.87
   2   3 -15    1.74    4.40
   2   3 -15    3.17    6.08
   2  -3 -15    6.11    5.62
   2   3 -14    9.07    7.92
   2  -3 -14   18.63    8.78
   2  -3 -14   16.95    9.55
   2   3 -14    9.72    5.72
   2   3 -13  219.11   34.84
   2  -3 -13  233.24   34.51
   2  -3 -13  240.15   32.92
   2   3 -13  266.26   35.84
   2  -3 -12   63.88   17.96
   2   3 -12   38.04   14.13
   2  -3 -11 1143.72   75.64
   2   3 -11 1276.51   82.00
   2   3 -10   45.82   10.23
   2  -3 -10   37.89   14.65
   2   3 -10   54.78   15.81
   2   3  -9 1434.56   72.21
   2   3  -9 1565.82   87.97
   2  -3  -9 1533.22   85.08
   2   3  -8   24.16    8.21
   2  -3  -8   13.95   11.08
   2   3  -8   16.59   10.74
   2   3  -7   11.25    4.71
   2   3  -7    8.67    8.07
   2  -3  -7    6.68    8.52
   2   3  -6   16.14    6.90
   2   3  -6   13.32    7.87
   2  -3  -6    5.57    5.41
   2   3  -5 5046.71  159.23
   2  -3  -5 5100.90  153.71
   2   3  -5 5446.13  166.31
   2  -3  -5 4641.64  152.99
   2   3  -5 4852.70  149.98
   2   3  -4   27.72   10.25
   2  -3  -4   18.17    6.11
   2  -3  -4    8.24    4.11
   2   3  -4   14.87    6.35
   2   3  -4   31.70    8.49
  -2   3   3 4478.54  120.12
   2   3  -3 4206.55  141.87
   2   3  -3 5218.41  141.03
   2  -3  -3 5015.59  138.03
   2   3  -3 5481.47  143.08
   2  -3  -3 4734.70  135.52
   2   3  -2   14.40    5.01
  -2   3   2   10.66    5.38
  -2  -3   2   12.43    5.92
  -2   3   1 2859.78   84.16
  -2  -3   1 2775.31   84.61
  -2   3   0   14.42    4.16
  -2   3   0    9.37    5.32
  -2  -3   0    6.90    4.01
  -2   3  -1 2803.42   80.37
  -2  -3  -1 2741.31   80.82
  -2  -3  -2    8.02    4.99
  -2   3  -2   15.16    6.05
   2  -3   3 4146.85  135.58
   2   3   3 3904.55  128.71
  -2  -3  -3 4731.36  127.86
  -2   3  -3 4497.44  125.63
   2   3   4   19.96    6.13
  -2  -3  -4   34.45    9.79
  -2   3  -4   17.12    7.18
   2  -3   4   22.84    8.84
   2   3   5 5680.34  146.32
   2  -3   5 5633.54  187.50
   2   3   5 5088.32  174.75
  -2   3  -5 4923.44  163.30
  -2  -3  -5 5106.95  167.33
   2   3   6   11.76    5.24
   2   3   6   11.03    9.11
  -2  -3  -6    9.01    9.86
   2  -3   6   20.00   12.40
  -2   3  -6   31.08   13.15
   2   3   7    9.09    5.02
   2  -3   7   11.07   11.69
   2   3   7    1.73   11.11
   2   3   8   15.56    5.10
   2  -3   8   22.02   10.74
   2   3   8   14.59    9.43
   2   3   9 1900.64   67.74
   2   3   9 1679.22  113.39
   2  -3   9 1982.84  127.41
  -2   3  -9 1494.51  105.44
  -2  -3  -9 1745.20  123.60
   2   3  10   47.16    9.87
   2   3  10   65.80   26.44
   2  -3  10   39.21   20.95
  -2   3 -10   89.08   26.18
  -2  -3 -10   18.70   14.50
  -2   3 -11 1233.06   93.44
  -2  -3 -11 1477.58  108.02
   2   3  11 1273.18  100.62
   2  -3  12   85.42   28.33
   2   3  12   81.30   25.13
  -2  -3 -12   37.12   15.30
  -2   3 -12   63.95   18.39
   2  -3  13  316.03   50.00
  -2  -3 -13  234.35   39.91
  -2   3 -13  215.91   35.41
   2   3  13  267.56   43.02
  -2   3 -13  234.49   33.72
   2  -3  14   25.83   19.28
   2   3  14    8.56    7.27
  -2   3 -14    9.08    8.16
  -2  -3 -14    5.84    8.33
  -2   3 -14   14.55    9.25
  -2   3 -14   14.87    9.84
   2  -3  15   -7.04   11.94
   2   3  15    1.99    6.64
  -2  -3 -15    5.32    8.07
  -2   3 -15   -3.38   10.42
  -2   3 -15    6.84    8.45
  -2   3 -15   -1.48    6.87
  -2  -3 -16   36.91   13.64
   2   3  16   27.51   12.67
   2  -3  16   48.30   18.70
  -2   3 -16   23.32   10.30
  -2   3 -16   33.57   10.51
  -2   3 -16   20.17   10.33
  -2   3 -17  270.30   34.88
  -2   3 -17  240.78   28.61
  -2   3 -18   30.38   10.53
  -2   3 -18   -0.96    7.19
  -2   3 -19   62.56   14.92
  -2   3 -19   48.98   10.21
  -2   3 -20   -0.90    5.73
   2  -3  21    2.49    3.05
   2   3  21   -4.01    3.70
  -2   3 -21    2.81    3.04
   2  -3  22    3.71    2.69
   2   3  22   -1.47    2.74
  -2   3 -22    2.60    2.78
   2  -3  23    1.63    2.23
   2   3  23    2.25    1.91
  -2   3 -23    2.12    2.13
   2   4 -22    0.39    1.81
   2   4 -22    1.63    1.81
   2  -4 -21    0.51    2.27
   2   4 -21    0.58    2.70
   2   4 -21   -1.52    3.79
   2   4 -20   12.29    6.12
   2   4 -20   11.14    5.13
   2   4 -19   17.96   11.31
   2   4 -19   22.51    9.01
   2   4 -18  130.71   22.89
   2   4 -17   64.16   18.05
  -2   4  16   65.01   19.66
   2   4 -16   70.21   17.32
   2  -4 -16   94.59   20.42
  -2  -4  16   71.16   20.58
   2   4 -16   58.76   16.87
   2  -4 -16   88.43   19.34
   2   4 -16   72.29   19.96
   2   4 -15   63.58   16.12
   2  -4 -15   49.82   14.48
   2  -4 -15   48.32   16.37
   2   4 -15   73.04   21.69
   2   4 -14   10.55   10.16
   2  -4 -14    5.73    3.87
   2  -4 -14    4.44    6.75
   2   4 -14    9.09    5.77
   2   4 -13   16.74   11.53
   2  -4 -13    5.67    6.35
   2   4 -13   26.07   14.88
   2  -4 -13   19.87    9.66
   2   4 -12  799.16   60.89
   2  -4 -12  665.74   54.56
   2  -4 -11  318.76   36.66
   2   4 -11  282.76   29.86
   2   4 -10 1028.15   67.61
   2  -4 -10  938.20   63.59
   2  -4  -9   23.53    8.38
   2   4  -9   29.75   10.21
   2   4  -9   34.56   13.21
   2   4  -8  160.18   22.71
   2  -4  -8  139.26   22.01
   2   4  -8  143.11   23.31
   2   4  -7  501.93   39.49
   2  -4  -7  532.20   40.93
   2   4  -7  502.54   43.11
   2  -4  -6  415.94   32.58
   2   4  -6  407.57   32.56
   2   4  -6  411.03   37.99
   2  -4  -5  141.51   17.75
   2   4  -5  142.70   17.86
   2  -4  -5  138.00   19.63
   2   4  -5  185.41   23.35
   2   4  -5  187.73   25.22
   2  -4  -4 6556.34  195.74
   2  -4  -4 7321.62  195.21
   2   4  -4 8433.21  212.15
   2   4  -4 8011.64  199.66
  -2   4   4 6861.53  179.96
   2   4  -4 7508.03  217.59
   2   4  -3  439.98   27.72
  -2  -4   3  390.25   25.69
   2  -4  -3  350.25   24.59
  -2   4   3  437.81   26.95
   2  -4  -3  461.37   28.31
   2   4  -3  451.28   30.21
   2   4  -3  384.43   33.33
  -2   4   3  364.26   21.70
  -2  -4   2 1769.68   61.25
  -2   4   2 1820.53   60.73
  -2   4   2 2001.12   67.10
   2   4  -2 1797.12   77.05
  -2  -4   1  405.27   23.76
  -2   4   1  411.58   23.07
  -2   4   1  360.35   24.79
  -2  -4   0 1441.09   51.89
  -2   4   0 1383.69   53.94
  -2  -4  -1  378.49   22.15
  -2   4  -1  396.83   21.77
  -2   4  -1  373.15   24.05
  -2  -4  -2 2026.03   67.31
  -2   4  -2 1961.03   65.47
   2   4   3  289.62   22.43
   2  -4   3  325.39   25.40
  -2   4  -3  363.94   24.47
   2   4   4 6649.31  196.74
  -2  -4  -4 7412.63  199.42
  -2   4  -4 6902.44  193.81
   2  -4   4 7340.44  208.64
   2  -4   5  160.95   24.55
   2   4   5  162.59   22.02
  -2  -4  -5  184.28   24.40
  -2   4  -5  145.85   20.76
   2   4   5  204.56   19.18
   2  -4   6  475.60   45.26
  -2  -4  -6  385.53   42.12
   2   4   6  440.99   40.84
  -2   4  -6  343.30   37.23
   2   4   6  490.86   31.08
   2   4   7  543.18   50.91
   2  -4   7  525.46   51.13
   2   4   7  639.35   36.68
  -2   4  -8  158.79   31.24
   2  -4   8  148.93   29.51
   2   4   8  185.53   30.08
  -2  -4  -8  149.73   34.33
   2   4   8  200.04   19.74
   2   4   9   52.04   15.99
  -2   4  -9   16.25   14.44
  -2  -4  -9   25.25   14.60
   2  -4   9   17.99   13.39
   2   4   9   23.32    7.17
   2   4  10 1153.21   89.41
  -2  -4 -10 1143.66   92.89
   2  -4  10 1219.51   97.67
  -2   4 -10  950.70   78.87
   2   4  10 1244.00   54.62
   2   4  11  386.53   51.47
  -2   4 -11  356.29   45.49
  -2  -4 -11  357.06   48.58
   2  -4  11  411.90   58.21
   2  -4  12  824.24   82.56
   2   4  12  848.91   76.35
  -2   4 -12  763.27   67.72
  -2  -4 -12  823.62   73.41
   2  -4  13   -2.71   10.63
   2   4  13   19.38   10.99
  -2  -4 -13   15.50    9.09
  -2   4 -13   -3.58   10.31
  -2   4 -13   -4.32    5.87
  -2   4 -13   -1.40   10.47
  -2   4 -14    1.68    6.72
  -2  -4 -14    1.78    5.59
   2  -4  14   20.00   17.52
   2   4  14  -10.10    9.07
  -2   4 -14   14.00   10.06
  -2   4 -14   -1.43    4.27
   2  -4  15   54.23   22.03
  -2  -4 -15   83.80   21.34
   2   4  15   58.68   18.07
  -2   4 -15   47.43   16.78
  -2   4 -15   44.44   11.05
  -2   4 -15   68.20   17.14
  -2   4 -15   68.54   17.90
   2  -4  16  105.23   25.50
  -2   4 -16   89.22   20.11
  -2  -4 -16   55.51   15.24
   2   4  16   78.34   21.16
  -2   4 -16   78.81   17.63
  -2   4 -16   84.30   20.46
  -2   4 -17   21.56    9.01
  -2   4 -17   16.84    7.01
  -2   4 -18  118.68   21.22
  -2   4 -18   82.86   15.99
  -2   4 -19    0.81    3.92
  -2   4 -19   11.93    8.74
  -2   4 -20    7.27    4.38
  -2   4 -20    0.65    4.04
   2  -4  21   -0.58    2.08
   2   4  21    2.50    3.44
  -2   4 -21    3.56    3.24
   2  -4  22    1.32    1.75
   2   4  22   -0.46    2.10
  -2   4 -22    3.67    3.40
   2   5 -22    3.01    2.64
   2   5 -22    0.99    2.41
   2   5 -21    3.93    2.44
   2   5 -20   -0.78    3.14
   2   5 -19   33.21    9.20
   2   5 -18   25.38   11.73
   2   5 -17   26.32   11.74
  -2  -5  16    5.57   10.43
  -2   5  16   -1.81    8.04
   2   5 -16   18.22   10.91
   2  -5 -16    3.75    4.67
   2   5 -16    5.94    7.97
   2   5 -16   17.66   10.70
   2   5 -15   33.71   12.33
  -2   5  15   21.79   12.17
   2  -5 -15   37.43   12.51
  -2  -5  15   11.04    8.09
   2   5 -15   34.03   13.14
   2  -5 -15   16.10    9.41
   2   5 -15   11.78   10.55
   2  -5 -14   76.85   18.78
   2   5 -14   84.68   21.62
   2   5 -14  125.43   22.77
   2  -5 -14   90.85   18.77
   2   5 -13   19.79   12.22
   2  -5 -13   11.48    7.90
   2   5 -13   15.08    8.44
   2   5 -13   -4.11    4.97
   2  -5 -13   -6.47    6.49
   2   5 -12    1.35    5.42
   2  -5 -12   -5.11    7.28
   2  -5 -11  621.01   48.59
   2   5 -11  645.43   51.09
   2   5 -11  497.72   43.39
   2   5 -10  626.29   48.78
   2  -5 -10  511.40   43.61
   2   5 -10  484.77   43.15
   2  -5  -9   -1.10    6.11
   2   5  -9   -1.14    4.54
   2   5  -9    5.23    7.86
   2  -5  -8   -1.00    5.23
   2   5  -8    9.03    7.59
   2   5  -8    3.91    7.16
   2   5  -7  182.97   21.67
   2  -5  -7  177.67   21.23
   2   5  -7  179.39   25.69
   2  -5  -6 1743.45   72.60
   2   5  -6 1897.43   75.15
   2   5  -6 1822.59   89.47
   2   5  -5  549.90   34.72
   2  -5  -5  536.84   33.13
   2   5  -5  551.70   45.34
   2  -5  -4   85.99   13.75
   2   5  -4   84.68   12.47
   2   5  -4   82.16   15.08
   2  -5  -4   71.46   10.70
  -2   5   4   65.50    9.18
   2   5  -4   92.86   17.18
   2  -5  -3  828.77   40.19
  -2   5   3  989.25   41.11
  -2  -5   3  830.61   38.97
  -2   5   3  812.27   38.99
   2   5  -3  873.09   56.02
  -2  -5   2 2037.14   67.12
   2   5  -2 2324.23   73.80
   2  -5  -2 2071.42   68.60
  -2   5   2 2212.53   68.14
   2   5  -2 2164.09   91.58
  -2   5   2 1998.04   75.92
  -2   5   2 2214.95   77.91
  -2   5   1  236.67   16.43
  -2  -5   1  253.94   17.48
  -2   5   1  215.49   19.61
  -2   5   1  254.74   23.03
  -2  -5   0  122.54   11.42
  -2   5   0  140.38   11.89
  -2   5   0  115.22   14.46
  -2   5   0  143.84   16.80
  -2   5  -1  252.31   16.98
  -2  -5  -1  270.79   18.18
  -2   5  -1  229.08   19.95
  -2   5  -2 2041.26   67.09
  -2  -5  -2 2159.09   69.47
  -2  -5  -3  922.78   42.97
  -2   5  -3  814.14   39.61
  -2   5  -4   88.20   14.34
  -2  -5  -4   87.66   15.69
   2   5   4   56.38   10.63
   2  -5   4   68.27   12.14
   2  -5   5  461.77   37.12
   2   5   5  478.20   35.53
  -2  -5  -5  554.86   45.05
  -2   5  -5  428.04   36.98
   2  -5   6 1848.45   91.27
   2   5   6 1849.39   86.77
  -2  -5  -7  138.18   30.86
   2  -5   7  206.99   29.91
   2   5   7  170.34   24.57
  -2   5  -7  153.19   29.03
   2   5   7  211.12   21.80
   2  -5   8   13.36   11.04
  -2   5  -8    8.75   10.17
  -2  -5  -8    6.53   10.41
   2   5   8    2.91    6.22
   2   5   8    6.06    5.50
   2  -5   9   11.54   11.14
   2   5   9   -1.64    6.39
  -2  -5  -9   10.74   10.40
  -2   5  -9    1.78   11.47
   2   5   9    3.02    3.38
   2  -5  10  544.34   59.10
   2   5  10  563.75   56.33
  -2  -5 -10  628.10   61.09
  -2   5 -10  499.37   52.25
   2   5  10  609.13   38.61
   2  -5  11  647.19   67.32
   2   5  11  667.86   62.65
  -2  -5 -11  630.97   60.56
  -2   5 -11  553.83   54.31
  -2  -5 -12  -10.72    6.06
   2   5  12   25.68   12.30
   2  -5  12    9.79   11.14
  -2   5 -12    4.95    8.19
  -2   5 -12   10.23    9.87
   2  -5  13    2.46   11.08
   2   5  13    1.94    5.44
  -2   5 -13   11.05    6.79
  -2  -5 -13   -1.67    7.78
  -2   5 -13    9.29    7.15
  -2   5 -13    4.12    4.85
   2   5  14   91.93   23.19
  -2   5 -14   68.99   17.28
  -2  -5 -14  104.47   22.86
   2  -5  14  141.30   31.98
  -2   5 -14   97.99   16.77
  -2   5 -14   98.39   20.20
  -2   5 -14   91.45   19.35
   2   5  15   20.58   11.38
   2  -5  15   53.26   21.38
  -2   5 -15   19.78   10.54
  -2  -5 -15   17.38    8.94
  -2   5 -15   19.24    3.87
  -2   5 -15   26.19    9.79
  -2   5 -15   23.36    9.13
   2   5  16    9.44    7.87
  -2   5 -16   19.74   11.38
  -2  -5 -16   16.02    9.12
   2  -5  16   11.26   11.24
  -2   5 -16   20.78    9.32
  -2   5 -16    8.17    5.81
  -2   5 -17   16.78    8.77
  -2   5 -17   40.25   12.05
  -2   5 -18    7.17    6.74
  -2   5 -18   18.68    7.45
  -2   5 -19   15.54    6.23
  -2   5 -19   46.38   12.90
   2  -5  20   -1.39    2.25
   2   5  20    0.71    1.86
  -2   5 -20    1.30    3.63
  -2   5 -20    1.77    4.40
   2   5  21    2.79    3.86
   2  -5  21    3.30    3.19
  -2   5 -21    4.79    2.25
  -2   5 -21    3.52    3.99
   2   5  22    0.80    1.48
   2  -5  22    5.97    3.37
  -2   5 -22    4.54    3.44
   2   6 -22    5.98    3.08
   2   6 -21    3.13    3.29
   2   6 -20   10.16    5.62
   2   6 -19   -0.96    3.83
   2   6 -19    3.07    6.13
   2   6 -18   26.41    9.17
   2   6 -18   33.13   12.12
   2   6 -17    5.58    5.66
   2   6 -17   -1.39    8.41
   2   6 -16    3.00    5.48
   2   6 -16   12.13    9.17
  -2  -6  15    1.88    8.95
  -2   6  15   33.48   13.68
   2  -6 -15   10.39    5.77
   2   6 -15   13.13    9.20
   2  -6 -15   22.17    9.52
   2   6 -15   16.16    7.61
   2   6 -15   14.25    7.40
   2   6 -14  144.72   26.47
   2  -6 -14   91.27   19.26
   2   6 -14  131.45   21.41
  -2  -6  14   92.80   22.32
   2  -6 -14   99.38   18.58
   2   6 -14  142.00   22.62
   2   6 -14  165.25   27.98
   2  -6 -13   17.07   10.80
   2   6 -13   33.91   13.03
   2   6 -13   16.12    8.11
   2   6 -13   25.13   10.59
   2  -6 -13   24.48    9.19
   2   6 -12    5.39    5.55
   2   6 -12   -1.34    5.75
   2   6 -12   -1.17    3.88
   2  -6 -12    8.09    4.08
   2   6 -11   13.59    7.71
   2  -6 -11   15.64    9.18
   2   6 -11   17.49   10.18
   2   6 -10   97.22   18.39
   2  -6 -10  110.22   18.99
   2   6 -10   78.06   17.18
   2   6  -9  187.24   23.43
   2  -6  -9  171.62   22.60
   2   6  -9  144.74   25.00
   2  -6  -8 1013.29   54.83
   2   6  -8 1006.42   54.70
   2   6  -8  894.10   64.44
   2  -6  -7    1.54    3.85
   2   6  -7    1.53    3.29
   2   6  -7   11.01    6.03
   2   6  -6   34.46    8.46
   2  -6  -6   41.90    9.35
   2   6  -6   44.49   14.07
   2   6  -5  499.93   30.89
   2  -6  -5  485.69   30.14
   2   6  -5  441.64   41.18
  -2   6   4    4.22    2.73
  -2  -6   4    2.83    2.72
  -2   6   4    8.35    4.06
  -2   6   4    9.91    6.00
   2   6  -4   -1.17    7.63
  -2  -6   3  187.13   15.92
   2   6  -3  254.24   22.85
  -2   6   3  199.72   15.73
   2  -6  -3  167.62   17.02
  -2   6   3  225.40   21.71
  -2   6   3  199.37   19.08
   2   6  -3  216.49   26.73
  -2  -6   2  131.53   12.16
  -2   6   2  115.49   10.94
   2  -6  -2  116.52   11.84
   2   6  -2  136.92   14.24
  -2   6   2  128.23   17.42
  -2   6   2   91.91   14.00
   2   6  -1   11.06    4.32
  -2   6   1    9.99    3.05
   2  -6  -1   11.93    3.94
  -2  -6   1   11.70    3.68
  -2   6   1    7.79    4.82
  -2   6   1    5.11    5.11
  -2   6   0 2656.64   73.33
  -2  -6   0 2536.51   73.91
  -2   6   0 2656.73   95.82
  -2   6   0 2644.20   90.31
  -2  -6  -1    6.87    1.96
  -2   6  -1    3.21    2.15
  -2   6  -1   10.18    6.27
  -2  -6  -2  115.87   12.65
  -2   6  -2  115.74   11.86
  -2   6  -3  180.89   18.30
  -2  -6  -3  202.72   20.17
  -2   6  -4   10.62    7.44
  -2  -6  -4   15.71    5.94
   2   6   5  336.72   25.85
   2  -6   5  359.77   28.28
   2  -6   6   27.72    9.77
   2   6   6   18.83    7.98
  -2   6  -6   20.91    9.97
  -2  -6  -6   39.47   17.17
  -2   6  -7   18.42   10.21
  -2  -6  -7   -1.75    6.54
   2  -6   7    7.00    5.91
   2   6   7   13.32    5.46
   2  -6   8  948.72   65.33
   2   6   8  840.85   57.24
  -2  -6  -8  964.66   72.87
  -2   6  -8  827.16   62.91
   2   6   9  169.63   26.95
  -2  -6  -9  209.27   33.46
   2  -6   9  170.81   29.22
  -2   6  -9  155.40   27.37
   2   6   9  227.06   24.14
   2   6  10  103.66   21.51
  -2  -6 -10  121.09   23.55
   2  -6  10  127.71   26.21
  -2   6 -10   57.95   15.90
   2   6  10  123.04   17.85
   2  -6  11   14.19   11.53
  -2  -6 -11   23.06   10.33
  -2   6 -11   -7.12    6.82
   2   6  11   18.73   11.14
   2  -6  12   10.62   10.05
   2   6  12   -4.89    5.07
  -2  -6 -12   -1.47    4.81
  -2   6 -12   -4.16    7.30
  -2   6 -12   -4.81    4.57
  -2   6 -12   10.38    8.05
   2  -6  13    6.45    6.09
   2   6  13   14.64   11.55
  -2   6 -13    6.71    8.79
  -2  -6 -13   15.30    9.54
  -2   6 -13   16.41    4.25
  -2   6 -13   34.09   11.75
  -2   6 -13   19.09    9.10
  -2  -6 -14  135.47   23.15
  -2   6 -14  142.20   24.23
   2  -6  14  163.66   31.15
   2   6  14  127.98   24.71
  -2   6 -14  138.00   19.74
  -2   6 -14  128.33   22.17
  -2   6 -14  110.96   22.43
  -2   6 -15   11.05    9.29
  -2  -6 -15    9.89    6.26
   2  -6  15   44.85   16.46
   2   6  15   22.21   10.44
  -2   6 -15   24.85    8.27
  -2   6 -15   19.76    9.74
  -2   6 -15   18.82    9.93
  -2   6 -16    5.16    3.70
  -2   6 -16   17.83   10.19
  -2   6 -17    7.64    4.60
  -2   6 -17    1.23    7.13
  -2   6 -18   15.45    8.10
  -2   6 -18   22.76   10.05
   2   6  19    8.64    5.81
   2  -6  19   -5.59    5.29
  -2   6 -19   -2.01    5.46
  -2   6 -19   -0.82    2.56
   2   6  20    0.59    3.32
   2  -6  20    0.65    2.07
  -2   6 -20    4.25    4.76
  -2   6 -20    1.28    3.07
   2  -6  21    4.23    3.73
   2   6  21    2.76    1.47
  -2   6 -21    0.94    2.79
  -2   6 -21   -0.66    3.24
   2   6  22    3.29    2.39
   2  -6  22    6.10    3.74
  -2   6 -22    2.73    1.90
  -2   6 -22    6.47    3.46
   2   7 -21    6.57    3.05
   2   7 -21    0.51    2.83
   2   7 -20    5.46    3.85
   2   7 -20   -4.56    6.68
   2   7 -19   15.48    6.25
   2   7 -19    5.15    3.12
   2   7 -18   15.02    8.92
   2   7 -18    1.03    3.63
   2   7 -17    9.38    5.82
   2   7 -17   24.04   11.41
   2   7 -16   12.76    6.98
   2   7 -16    2.78    6.12
  -2   7  15   46.26    9.96
   2   7 -15   48.11   14.39
   2   7 -14    6.63    3.54
  -2   7  14    8.50    6.70
  -2   7  14   15.76    9.18
   2   7 -14    2.02    4.79
   2   7 -14    9.26    7.29
   2   7 -14    5.36    6.53
  -2   7  13   52.08   12.03
   2   7 -13   42.38   13.71
   2   7 -13   30.69   10.22
  -2   7  13   24.88    9.29
   2   7 -13   31.94   11.53
   2   7 -12   35.29    9.81
   2  -7 -12   40.17   11.58
   2   7 -12   20.58    8.51
   2   7 -12   27.88   13.54
   2   7 -12   26.21    8.73
   2   7 -11   45.45   13.74
   2   7 -11   59.25   13.66
   2  -7 -11   95.86   17.53
   2   7 -11   49.79   15.50
   2   7 -11   42.94   13.27
   2   7 -11   63.12   15.98
   2   7 -10   37.56   10.59
   2  -7 -10   29.67    8.64
   2   7 -10    8.71    6.02
   2  -7  -9   31.12    9.62
   2   7  -9   26.61    8.85
   2   7  -9   10.50    7.26
   2   7  -8   14.63    6.58
   2  -7  -8    9.86    4.07
   2   7  -8   10.63    9.27
   2   7  -7  421.37   29.26
   2  -7  -7  349.08   27.82
   2   7  -7  411.13   44.14
  -2   7   6  481.42   30.06
   2  -7  -6  534.56   32.47
   2   7  -6  477.47   30.21
   2   7  -6  453.90   44.56
  -2   7   5   54.84    9.69
  -2  -7   5   44.90    9.10
  -2   7   5   70.21   12.85
   2   7  -5   43.04   13.21
  -2  -7   4  112.55   12.41
  -2   7   4  143.58   13.54
  -2   7   4  146.97   18.59
  -2   7   4  130.85   15.69
   2   7  -4  147.34   24.60
  -2   7   3  169.99   13.05
  -2   7   3  159.21   18.17
   2   7  -3  164.60   25.50
  -2   7   3  155.81   19.01
  -2   7   2  743.97   27.62
  -2   7   2  857.94   47.65
  -2   7   2  752.34   43.43
  -2   7   1  494.79   20.08
   2   7  -1  538.09   24.96
  -2   7   1  478.40   33.82
  -2   7   1  497.80   37.08
  -2   7   0   11.76    2.52
   2   7   0   18.88    4.20
  -2   7  -1  414.67   20.06
  -2   7  -1  459.55   34.75
  -2   7  -2  612.41   30.63
  -2   7  -2  778.93   45.61
  -2   7  -3  130.13   18.37
  -2  -7  -4  107.86   19.86
  -2   7  -4  139.48   19.71
  -2   7  -5   58.36   12.93
  -2  -7  -5   29.38   13.78
  -2   7  -5   42.67   11.16
   2  -7   6  333.04   27.06
   2   7   6  369.26   26.20
  -2   7  -6  330.11   32.61
  -2   7  -6  413.25   34.38
  -2   7  -6  458.32   44.77
   2   7   7  310.59   27.12
  -2   7  -7  377.98   35.65
  -2  -7  -7  371.55   39.24
   2  -7   7  344.51   30.92
  -2   7  -7  424.97   41.74
  -2   7  -8    1.13    8.04
   2   7   8    8.71    5.42
   2  -7   8    9.05    8.23
  -2  -7  -8    5.30    5.70
  -2   7  -8   24.87   11.45
  -2   7  -8    9.51    3.83
   2   7   9   19.46    7.85
  -2   7  -9   34.27   10.98
   2  -7   9   25.68   10.62
  -2  -7  -9   19.43   10.00
  -2   7  -9   21.03    8.52
  -2   7  -9   53.47   14.68
   2   7  10   23.63    8.06
  -2   7 -10   25.19    9.13
  -2  -7 -10   30.28   10.47
   2  -7  10   13.89   10.34
  -2   7 -10   20.17    7.86
   2   7  11   39.21   11.36
   2  -7  11   66.46   18.56
  -2   7 -11   61.44   15.65
  -2  -7 -11   68.47   14.65
  -2   7 -11   51.39   12.32
  -2   7 -11   62.85   15.58
  -2   7 -11   39.97   11.93
   2  -7  12   23.53   10.50
   2   7  12   32.22   11.66
  -2   7 -12   22.60   10.48
  -2   7 -12   21.53    9.19
  -2   7 -12   17.91    9.38
  -2   7 -12   28.39   10.79
   2   7  13   27.89    9.19
  -2   7 -13   38.79   10.79
  -2   7 -13   45.06   12.00
  -2   7 -13   34.96   12.46
  -2   7 -14   10.79    6.81
   2   7  14    3.76    4.71
  -2   7 -14    7.67    4.02
  -2   7 -14    7.45    5.10
  -2   7 -15   52.59   11.81
  -2   7 -15   55.41   15.17
  -2   7 -16   10.29    5.58
  -2   7 -16   10.87    6.32
   2  -7  17    5.22    5.73
   2   7  17    9.38    5.95
  -2   7 -17    4.21    5.12
  -2   7 -17   11.51    7.38
   2  -7  18   -0.88    3.66
   2   7  18    2.72    4.62
  -2   7 -18    4.65    4.76
  -2   7 -18    3.19    4.83
   2  -7  19   12.38    5.72
   2   7  19    2.29    2.04
  -2   7 -19   13.33    4.96
  -2   7 -19   12.28    6.59
   2   7  20    2.26    2.07
   2  -7  20   -3.05    3.65
  -2   7 -20    3.10    3.77
  -2   7 -20    0.77    4.22
   2   7  21    7.91    3.06
  -2   7 -21   10.57    5.09
  -2   7 -21   10.82    4.05
   2   8 -21    5.64    2.96
   2   8 -21    0.40    2.05
   2   8 -20    6.58    4.03
   2   8 -20   -7.33    4.61
   2   8 -19    0.74    2.86
   2   8 -19    2.80    2.50
   2   8 -18   52.01   12.14
   2   8 -18   58.14   14.43
   2   8 -17   -2.18    7.17
   2   8 -17   -4.81    4.40
   2   8 -16    3.18    3.13
   2   8 -15   34.73   10.60
  -2   8  14   15.07    6.42
   2   8 -14   12.26    6.49
   2   8 -14   13.85    8.30
   2   8 -14   18.62   10.58
  -2   8  13    0.91    3.36
   2   8 -13   -1.28    8.58
   2   8 -13    4.67    6.40
   2   8 -13   -6.59    9.36
  -2   8  12   35.69    8.89
   2   8 -12   20.28   10.27
   2   8 -12   36.11   12.31
   2   8 -12   15.50    8.59
   2   8 -12   19.79    8.86
  -2   8  11   95.43   16.21
   2   8 -11   94.78   19.54
   2   8 -11   49.95   13.03
   2   8 -11   90.38   20.57
   2   8 -11   81.88   17.18
   2   8 -11   93.17   18.43
  -2   8  10  185.20   22.35
   2   8 -10  152.74   26.70
   2   8 -10  145.47   23.19
   2   8 -10  184.30   30.87
   2   8 -10  145.30   23.42
   2   8  -9    9.34    5.12
  -2   8   9    2.66    4.83
   2   8  -9   11.14    8.18
   2   8  -8   54.19    9.77
   2   8  -8   43.70   14.55
  -2   8   8   47.85   10.52
   2   8  -7  194.89   31.05
   2   8  -6   32.53   14.26
   2   8  -5   16.14   11.86
  -2   8   5    5.48    5.24
   2   8  -4  566.52   48.23
  -2   8   4  488.55   36.04
  -2   8   4  451.38   30.87
   2   8  -4  366.77   40.46
  -2   8   3  231.65   23.94
  -2   8   3  248.71   25.31
   2   8  -3  233.86   29.73
  -2   8   2   17.57    8.12
  -2   8   2   31.01    9.43
  -2   8   1  197.92   21.91
  -2   8   1  204.30   24.27
   2   8  -1  191.92   26.12
  -2   8   0  341.52   30.92
  -2   8  -1  248.11   26.89
  -2   8  -2   15.45    6.76
  -2   8  -3  244.03   25.93
  -2   8  -3  196.69   30.42
  -2   8  -4  459.00   36.73
  -2   8  -4  465.96   46.39
  -2   8  -5   10.38   12.86
  -2   8  -5   19.86    9.19
  -2   8  -6   57.46   13.61
  -2   8  -6   69.49   17.74
  -2   8  -7  134.91   17.48
  -2   8  -7  165.72   25.75
   2   8   8   16.83    5.44
  -2   8  -8   38.24    9.62
  -2   8  -8   56.30   13.61
   2   8   9   -0.71    2.76
  -2   8  -9   -1.67    4.51
  -2   8  -9    3.00    6.73
  -2   8  -9    1.14    5.89
  -2   8 -10  140.71   20.57
  -2   8 -10  122.65   20.11
  -2   8 -10  154.26   21.66
  -2   8 -11   61.75   14.09
  -2   8 -11   45.28   12.00
  -2   8 -11   60.60   15.33
  -2   8 -12   19.92    8.04
  -2   8 -12   24.83   10.61
  -2   8 -12   29.87   10.10
  -2   8 -13    5.97    3.61
  -2   8 -13   -1.16    7.05
  -2   8 -13   -2.37    8.78
  -2   8 -14   16.24    7.46
  -2   8 -14    5.87    4.72
  -2   8 -14    8.09    5.03
  -2   8 -15   10.30    4.15
  -2   8 -16   -1.08    5.55
   2   8  17   -1.81    3.33
  -2   8 -17    3.99    2.95
   2   8  18   23.39    6.52
  -2   8 -18   63.34   13.74
  -2   8 -19    6.66    3.44
  -2   8 -19    0.83    5.18
  -2   8 -20    0.58    1.92
  -2   8 -20   -2.02    3.43
  -2   8 -21    1.21    2.58
  -2   8 -21   -6.14    3.87
   2   9 -20   -0.47    2.04
   2   9 -20    3.38    2.23
   2   9 -19   18.60    6.08
   2   9 -19   14.80    5.20
   2   9 -18    2.01    2.98
   2   9 -17   31.96    8.22
   2   9 -16    5.19    6.18
   2   9 -15   24.66    9.21
   2   9 -15    6.52    5.57
   2   9 -14   11.83    7.52
   2   9 -14   14.17    8.64
   2   9 -14   14.69    7.05
  -2   9  13   57.81   12.17
   2   9 -13   52.31   15.06
   2   9 -13   38.58   12.60
   2   9 -13   41.45   11.97
  -2   9  12    8.15    5.24
   2   9 -12   11.59    7.48
   2   9 -12   14.24   11.02
   2   9 -12    8.57    5.79
   2   9 -12   14.52    8.32
   2   9 -12   -1.03    7.05
  -2   9  11   98.23   17.04
   2   9 -11   96.12   21.16
   2   9 -11   67.29   14.90
   2   9 -11   52.63   15.68
   2   9 -11   78.67   17.00
   2   9 -11   76.70   14.87
   2   9 -10   22.05   11.78
  -2   9  10    6.30    2.95
   2   9 -10   11.30    6.52
   2   9 -10   22.80   13.16
   2   9 -10   13.93    6.18
   2   9 -10   14.49    8.56
   2   9 -10   29.80   10.17
  -2   9   9  170.44   21.51
   2   9  -9  115.81   24.24
   2   9  -9  171.24   30.48
   2   9  -9  142.15   22.34
  -2   9   8   17.30    6.41
   2   9  -8   -8.53    6.15
   2   9  -7  145.23   27.00
   2   9  -6   19.92   11.59
  -2   9   5  316.64   29.59
   2   9  -5  372.59   41.86
  -2   9   5  345.73   35.33
   2   9  -4   15.49    8.68
  -2   9   4   13.24    7.48
   2   9  -4   14.46    8.29
  -2   9   4   10.73    5.46
  -2   9   4    6.99    5.25
  -2   9   3  709.41   44.93
  -2   9   3  689.04   44.65
  -2   9   3  667.01   54.21
  -2   9   2   53.27   14.80
  -2   9   2   38.24   14.32
   2   9  -2   52.23   16.09
  -2   9   2   64.30   13.42
  -2   9   1   21.40    8.65
   2   9  -1   13.98    8.26
  -2   9   1   28.45   12.62
  -2   9   0    5.96    5.56
   2   9   0   11.47    8.26
  -2   9   0   12.79    9.71
  -2   9  -1   17.35    6.26
  -2   9  -1   25.52   11.39
   2   9   1    5.13    6.24
  -2   9  -2   55.93   12.56
  -2   9  -3  605.36   43.49
  -2   9  -3  621.37   52.66
  -2   9  -4   10.84    7.58
  -2   9  -4    4.40    6.67
  -2   9  -5  296.37   30.72
  -2   9  -5  345.83   38.50
  -2   9  -6    7.20    4.64
  -2   9  -6    6.89    7.28
  -2   9  -7  121.04   22.05
  -2   9  -8    9.90    7.92
  -2   9  -9  124.74   19.51
  -2   9  -9  125.19   21.66
  -2   9  -9  118.81   19.24
  -2   9  -9  102.58   19.27
  -2   9 -10    7.28    3.12
  -2   9 -10   18.79    9.88
  -2   9 -10   10.97    5.63
  -2   9 -10   24.88    9.98
  -2   9 -11   69.71   15.00
  -2   9 -11   64.97   13.90
  -2   9 -11   65.74   14.51
  -2   9 -12    9.02    5.45
  -2   9 -12    2.26    5.37
  -2   9 -12   13.41    8.94
  -2   9 -13   38.94   10.82
  -2   9 -13   57.13   14.39
  -2   9 -13   49.85   13.56
  -2   9 -14   11.04    6.22
  -2   9 -14   13.08    7.21
  -2   9 -15    5.37    4.36
  -2   9 -15   15.90    8.02
  -2   9 -16   12.11    5.08
  -2   9 -16   -1.02    3.87
  -2   9 -17   42.47   11.28
  -2   9 -17   40.43   11.07
  -2   9 -18    8.15    3.43
  -2   9 -19   16.33    5.36
   2   9  20   -0.40    2.40
  -2   9 -20    2.04    3.07
   2  10 -20   -0.93    1.50
   2  10 -19   -0.83    2.45
   2  10 -18    2.07    1.74
   2  10 -17    5.91    4.36
   2  10 -17    7.35    4.67
   2  10 -16    4.23    3.11
   2  10 -16   -2.10    2.94
   2  10 -15   31.63    8.68
   2  10 -15   53.10   12.17
   2  10 -14   14.05    6.79
   2  10 -14   45.93   11.63
   2  10 -13    4.80    5.34
   2  10 -13   -4.21    6.28
  -2  10  12  103.69   16.56
   2  10 -12   93.94   16.36
  -2  10  12   77.44   15.45
   2  10 -12   80.11   15.72
   2  10 -12   85.32   18.49
   2  10 -12   95.41   17.89
   2  10 -11   56.47   15.05
  -2  10  11   64.93   13.37
   2  10 -11   44.85   12.71
   2  10 -11   38.72   13.96
   2  10 -11   48.60   13.47
   2  10 -11   52.45   11.81
  -2  10  10   55.72   12.31
   2  10 -10   27.64    9.16
   2  10 -10   29.53    8.63
   2  10 -10   59.63   18.98
   2  10 -10   34.50    9.15
   2  10 -10   46.28   13.00
  -2  10   9   -0.91    4.51
   2  10  -9   -4.93    6.70
   2  10  -9    5.47    8.04
   2  10  -9    2.68    3.69
   2  10  -9    8.16    7.32
   2  10  -9    2.34    3.19
  -2  10   8    3.61    3.13
   2  10  -8   -1.72    7.91
   2  10  -8   -4.91    6.66
   2  10  -8    1.82    2.23
   2  10  -8    9.98    7.25
   2  10  -8   17.24    8.98
   2  10  -7   36.45   14.20
   2  10  -7   39.67   12.77
   2  10  -6   50.81   14.46
  -2  10   5   14.79    5.08
   2  10  -5   14.45    9.92
  -2  10   5    9.87    4.57
  -2  10   4  659.13   44.57
   2  10  -4  691.44   56.71
  -2  10   4  726.78   53.18
  -2  10   3  118.06   21.59
  -2  10   3  159.47   21.43
  -2  10   2   25.28    9.51
  -2  10   2   32.17   13.06
   2  10  -2   21.13   11.22
   2  10  -2   30.68   11.38
  -2  10   1   37.88   14.17
  -2  10   1   23.36    9.67
   2  10  -1    6.25    9.76
   2  10   0   49.35   14.15
  -2  10   0   77.20   17.50
  -2  10   0   65.44   13.84
  -2  10  -1   13.31    5.76
  -2  10  -1   20.22    8.30
  -2  10  -2   15.03    7.40
  -2  10  -3  155.46   25.37
  -2  10  -3  119.97   18.86
  -2  10  -4  581.36   43.51
  -2  10  -4  630.92   51.93
  -2  10  -5   20.42   10.09
  -2  10  -5    8.26    3.93
  -2  10  -6   42.37   11.02
  -2  10  -6   25.11    6.81
  -2  10  -7   42.11   11.95
  -2  10  -7   47.16   12.40
  -2  10  -7   35.90   11.09
  -2  10  -7   56.80   15.97
  -2  10  -8   -8.49    9.03
  -2  10  -8   -3.53    6.59
  -2  10  -8    6.38    6.16
  -2  10  -8   -5.99    5.85
  -2  10  -9   -2.15    4.93
  -2  10  -9    9.07    7.88
  -2  10  -9    8.71    4.27
  -2  10  -9  -10.04    8.19
  -2  10  -9    1.06    4.83
  -2  10 -10   56.17   13.26
  -2  10 -10   30.29   11.44
  -2  10 -10   34.06   11.55
  -2  10 -10   28.10    8.91
  -2  10 -10   32.79   10.66
  -2  10 -11   48.54   12.91
  -2  10 -11   44.43   12.06
  -2  10 -11   49.57   13.88
  -2  10 -11   48.28   12.31
  -2  10 -12   75.37   14.81
  -2  10 -12   75.24   16.14
  -2  10 -13   -3.19    5.09
  -2  10 -14   24.54    8.86
  -2  10 -14   34.88   10.39
  -2  10 -15   43.21   11.09
  -2  10 -15   50.45   12.43
  -2  10 -16    2.76    4.24
  -2  10 -16   -4.45    5.53
  -2  10 -17   -1.67    5.17
  -2  10 -17    0.80    2.84
  -2  10 -18   12.60    5.24
  -2  10 -18   21.04    6.54
   2  10  19    2.28    2.37
  -2  10 -19    0.58    2.39
  -2  10 -19   -1.76    2.40
   2  10  20    4.13    2.17
  -2  10 -20    4.67    2.89
  -2  10 -20    4.71    3.47
   2  11 -19    3.54    2.16
   2  11 -19    3.05    2.29
   2  11 -18    2.92    2.77
   2  11 -18    6.56    3.25
   2  11 -17    4.11    3.07
   2  11 -17   -3.76    2.53
   2  11 -16    2.04    5.13
   2  11 -16    3.83    2.62
   2  11 -15   19.10    7.28
   2  11 -15   24.73    7.25
   2  11 -14   51.79   11.03
   2  11 -14   36.02    8.91
   2  11 -13   43.94   12.16
   2  11 -13   35.09    9.56
   2  11 -13   29.08    7.59
  -2  11  12   -6.95    6.63
   2  11 -12   -2.59    5.66
   2  11 -12    1.90    5.53
   2  11 -12    7.59    4.39
  -2  11  11   55.98   12.62
   2  11 -11   27.70   12.27
  -2  11  11   42.87   11.68
   2  11 -11   27.72   12.63
   2  11 -11   29.89   10.27
   2  11 -11   21.70    8.81
  -2  11  10  124.73   18.94
   2  11 -10  122.40   22.17
  -2  11  10   87.93   16.64
   2  11 -10  122.49   18.00
   2  11 -10  127.81   25.00
   2  11 -10  102.06   17.75
   2  11 -10  108.82   18.68
  -2  11   9   76.40   15.23
   2  11  -9   87.05   19.49
   2  11  -9   68.90   15.47
  -2  11   9   82.13   16.83
   2  11  -9   86.37   14.73
   2  11  -9   56.96   15.10
   2  11  -9   69.13   14.31
   2  11  -8   24.63   12.18
  -2  11   8   22.17    7.20
  -2  11   8   16.80    8.83
   2  11  -8    5.30    2.82
   2  11  -8   15.10    8.77
   2  11  -8   11.00    6.28
   2  11  -8    7.52    6.65
   2  11  -7  173.47   28.97
   2  11  -7  146.67   19.44
   2  11  -7  155.65   27.49
  -2  11   7  118.49   19.78
   2  11  -7  127.48   22.72
   2  11  -7  139.02   19.63
   2  11  -7  155.89   24.99
   2  11  -6   85.16   20.95
   2  11  -6   79.03   17.04
   2  11  -6   58.50   12.73
  -2  11   6   52.29   14.16
   2  11  -6  105.40   23.74
   2  11  -6   62.61   16.65
   2  11  -5   51.55   15.59
  -2  11   5   28.41    8.50
   2  11  -5   47.49   14.98
  -2  11   5   22.33    9.46
   2  11  -5   30.78   10.17
   2  11  -5   50.50   13.85
   2  11  -5   53.56   16.53
  -2  11   4   38.74   10.98
  -2  11   4   20.94    7.92
   2  11  -4   23.50    7.69
  -2  11   3   25.38   10.92
  -2  11   3   25.69    9.85
  -2  11   2  462.00   41.51
  -2  11   2  461.04   41.60
  -2  11   1  336.00   35.29
  -2  11   1  305.60   34.27
  -2  11   0    6.90    6.55
  -2  11   0   -2.55    5.45
  -2  11  -1  287.00   30.61
  -2  11  -1  298.48   34.08
  -2  11  -2  352.56   33.89
  -2  11  -3   19.17    7.87
  -2  11  -3   21.80    8.92
  -2  11  -4   14.22    5.46
  -2  11  -4   14.63    5.96
   2  11   4   27.98    8.68
  -2  11  -5   32.31   11.14
  -2  11  -5   36.13   11.12
  -2  11  -5   45.72   11.56
  -2  11  -6   49.36   13.16
  -2  11  -6   72.97   16.13
  -2  11  -6   41.49   10.63
  -2  11  -6   84.61   16.66
  -2  11  -7  114.99   18.80
  -2  11  -7  143.68   22.48
  -2  11  -7  116.15   18.23
  -2  11  -7  127.01   20.13
  -2  11  -7  119.59   20.75
  -2  11  -8   26.84   10.87
  -2  11  -8   31.14   12.12
  -2  11  -8    6.94    4.92
  -2  11  -8   25.30    9.85
  -2  11  -9   75.79   16.56
  -2  11  -9   68.74   14.90
  -2  11  -9   60.22   14.54
  -2  11  -9   69.43   15.14
  -2  11 -10  110.46   18.41
  -2  11 -10  111.58   18.66
  -2  11 -10  108.33   19.42
  -2  11 -10   99.83   17.58
  -2  11 -10   97.91   17.25
  -2  11 -11   31.00   10.78
  -2  11 -11   21.02    8.52
  -2  11 -11   31.61    9.86
  -2  11 -11   21.72    8.22
  -2  11 -11   23.13    8.53
  -2  11 -12    2.40    3.63
  -2  11 -12    3.07    4.01
  -2  11 -12   -2.12    5.83
  -2  11 -12    3.96    3.68
  -2  11 -13   33.41    9.55
  -2  11 -14   42.89   10.76
  -2  11 -15   34.70    9.43
  -2  11 -16    9.86    5.77
  -2  11 -16   10.63    6.80
  -2  11 -17    1.44    3.63
  -2  11 -17    2.00    3.59
   2  11  18    1.41    1.73
  -2  11 -18    6.87    3.69
  -2  11 -18    1.81    2.59
   2  11  19    0.36    1.98
  -2  11 -19    3.33    3.01
  -2  11 -19    2.34    2.74
   2  12 -18    0.37    1.80
   2  12 -18    2.33    1.65
   2  12 -17   -0.46    2.51
   2  12 -17    3.08    2.34
   2  12 -16   21.63    5.15
   2  12 -16   16.14    5.32
   2  12 -15    6.77    3.49
   2  12 -15   -1.93    3.18
   2  12 -14   90.12   13.92
   2  12 -14   64.36   10.57
   2  12 -13   15.83    5.46
  -2  12  12   51.16   12.22
   2  12 -12   30.90    8.26
  -2  12  11    1.97    4.03
   2  12 -11   -2.63    5.35
   2  12 -11    5.08    4.39
   2  12 -11    7.75    5.87
   2  12 -11   -1.77    3.37
   2  12 -10   27.49   10.88
  -2  12  10   26.99    9.58
   2  12 -10   17.68    8.37
   2  12 -10   23.62    8.01
   2  12 -10   17.71    6.91
   2  12  -9   51.27   14.93
   2  12  -9   55.82   11.14
  -2  12   9   45.32   12.35
   2  12  -9   42.72   13.88
   2  12  -9   49.46   12.31
   2  12  -9   24.90    7.89
   2  12  -8  418.46   43.90
   2  12  -8  432.86   45.10
   2  12  -8  426.88   35.04
  -2  12   8  396.70   37.23
   2  12  -8  387.58   39.22
   2  12  -8  368.41   31.23
   2  12  -8  412.13   39.71
   2  12  -7    4.75    5.55
  -2  12   7   16.60    6.38
   2  12  -7    6.50    6.73
   2  12  -7   19.46    7.23
   2  12  -7   12.61   12.92
   2  12  -7   11.91    8.20
   2  12  -6  315.07   38.17
  -2  12   6  280.87   31.38
   2  12  -6  383.49   39.22
   2  12  -6  304.54   38.54
   2  12  -6  317.32   29.25
   2  12  -6  324.98   37.66
  -2  12   5    3.91    3.18
   2  12  -5   18.84   11.62
   2  12  -5   16.30    9.57
   2  12  -5   11.91    5.13
   2  12  -5   14.34    7.73
   2  12  -5    5.24    7.66
  -2  12   5   20.48    9.33
   2  12  -5   13.53   10.39
   2  12  -4  178.33   21.93
  -2  12   4  141.24   21.29
   2  12  -4  146.19   24.51
   2  12  -4  181.03   26.84
  -2  12   4  187.68   23.93
  -2  12   3   89.35   17.49
  -2  12   3   51.89   13.77
   2  12  -3   72.05   15.61
   2  12  -3   84.46   18.75
   2  12  -3   71.22   13.71
  -2  12   3   63.56   13.79
  -2  12   2  122.39   20.74
  -2  12   2   98.29   18.65
   2  12  -2  104.32   17.03
   2  12  -2  106.17   19.40
   2  12  -2   95.09   18.66
   2  12  -2  103.16   19.66
  -2  12   2   95.35   17.62
   2  12  -2  104.45   23.16
  -2  12   1   39.82   13.97
  -2  12   1   45.23   11.80
   2  12  -1   47.98   12.53
   2  12  -1   24.46    8.43
   2  12  -1   43.34   14.60
  -2  12   1   30.36   10.43
  -2  12   0 1450.28   76.72
  -2  12   0 1084.43   65.06
   2  12   0 1153.21   59.93
   2  12   0 1334.47   72.82
   2  12   0 1289.05   77.26
  -2  12   0 1320.89   72.38
  -2  12   0 1469.58   76.20
  -2  12  -1   18.37    5.16
  -2  12  -1   36.06   11.47
   2  12   1   31.48    8.93
  -2  12  -1   23.37    7.44
   2  12   1   16.45    7.12
   2  12   1   29.43   10.89
  -2  12  -1   27.03   11.18
  -2  12  -2  104.50   18.18
  -2  12  -2   92.16   16.58
   2  12   2   97.43   18.20
   2  12   2  104.17   16.03
   2  12   2   88.31   19.18
  -2  12  -2  111.62   20.74
  -2  12  -3   56.16   13.30
  -2  12  -3   74.61   14.66
   2  12   3   89.92   18.17
   2  12   3   61.86   12.21
  -2  12  -3   49.18   10.70
   2  12   3   60.92   14.31
  -2  12  -3   33.82    9.87
  -2  12  -4  173.21   23.72
   2  12   4  182.45   26.33
   2  12   4  149.39   19.85
  -2  12  -4  135.53   19.39
   2  12   4  152.62   21.51
  -2  12  -4  127.96   18.26
  -2  12  -4  158.10   23.89
  -2  12  -5    4.32    5.36
  -2  12  -5   12.19    7.38
   2  12   5    8.61    6.97
  -2  12  -5   10.76    5.55
   2  12   5    2.63    2.83
  -2  12  -5    3.53    3.16
  -2  12  -5   11.20    7.97
  -2  12  -6  297.02   30.97
   2  12   6  338.75   35.56
  -2  12  -6  249.53   25.53
  -2  12  -6  286.66   26.18
  -2  12  -6  264.70   29.86
  -2  12  -6  222.85   25.34
  -2  12  -6  342.08   34.60
  -2  12  -7   10.86    6.49
  -2  12  -7   10.33    7.11
  -2  12  -7    7.48    4.68
  -2  12  -7    4.97    5.18
  -2  12  -7    7.54    7.44
  -2  12  -7    3.63    5.60
  -2  12  -8  311.05   32.13
   2  12   8  409.61   33.87
  -2  12  -8  387.94   33.95
  -2  12  -8  386.51   35.02
  -2  12  -8  409.95   37.11
  -2  12  -8  431.88   37.41
  -2  12  -9   56.13   12.11
  -2  12  -9   51.26   13.07
  -2  12  -9   60.53   14.20
  -2  12  -9   36.93   11.10
  -2  12 -10   11.50    5.46
  -2  12 -10   16.96    6.85
  -2  12 -10   25.82   10.17
  -2  12 -10   29.65    9.71
  -2  12 -10   21.10    8.20
  -2  12 -11    6.03    7.00
  -2  12 -11    5.06    5.02
  -2  12 -11    4.16    3.47
  -2  12 -11    4.00    3.29
  -2  12 -12   36.18    9.78
  -2  12 -12   34.65    8.98
  -2  12 -12    9.54    6.31
  -2  12 -12   37.36   11.20
  -2  12 -13   14.41    8.63
  -2  12 -13   19.01    8.11
  -2  12 -14  121.52   17.36
  -2  12 -14   98.14   16.22
   2  12  15   -0.66    2.64
  -2  12 -15    4.34    5.31
   2  12  16   22.45    5.56
  -2  12 -16   22.73    6.99
   2  12  17   -1.84    2.65
  -2  12 -17   -1.17    2.67
  -2  12 -17   -1.61    1.92
   2  12  18    2.17    1.46
  -2  12 -18    2.22    1.95
  -2  12 -18    0.48    1.99
   2  13 -17   -0.34    2.08
   2  13 -16   -2.06    2.22
   2  13 -15   49.09    8.50
   2  13 -14    2.21    2.24
   2  13 -13   52.39   10.10
  -2  13  12   -0.80    5.86
   2  13 -12   -2.03    3.54
   2  13 -12   -5.15    4.77
   2  13 -11   26.03    9.51
  -2  13  11    7.96    3.85
   2  13 -11   12.27    5.81
   2  13 -11   16.92    6.03
   2  13 -10    5.14    5.05
  -2  13  10   -2.87    4.12
   2  13 -10    2.99    2.43
   2  13 -10    4.73    6.12
   2  13  -9  132.03   23.30
   2  13  -9  117.78   16.53
   2  13  -9  109.24   19.62
  -2  13   9  107.36   17.07
   2  13  -9  113.21   19.32
   2  13  -9  100.74   15.35
   2  13  -8   -9.35   10.06
   2  13  -8   11.89    9.23
   2  13  -8   -1.60    2.22
  -2  13   8    2.11    3.95
   2  13  -8   -3.46    4.68
   2  13  -7  461.43   42.27
  -2  13   7  408.46   36.91
   2  13  -7  433.16   42.52
   2  13  -7  464.57   34.57
   2  13  -7  412.99   40.20
  -2  13   6   18.17    7.47
   2  13  -6   22.51   11.06
   2  13  -6   19.37    8.22
   2  13  -6   24.10   11.19
   2  13  -6   12.34    6.38
   2  13  -5  157.70   20.10
  -2  13   5  147.72   21.82
   2  13  -5  161.66   25.51
   2  13  -5  170.52   25.08
  -2  13   5  147.10   19.80
   2  13  -5  158.62   26.64
  -2  13   4   -2.91    4.49
  -2  13   4   -1.06    6.95
   2  13  -4    1.23    4.74
   2  13  -4    6.36    6.19
   2  13  -4    6.38    5.05
  -2  13   4   -0.66    3.67
  -2  13   4    0.98    4.50
  -2  13   3   75.19   15.41
  -2  13   3   49.25   12.44
   2  13  -3   71.77   16.56
   2  13  -3   78.95   14.36
   2  13  -3   85.94   17.95
   2  13  -3   80.33   19.55
  -2  13   3   77.56   16.25
  -2  13   2   10.76    7.80
   2  13  -2   11.47    4.42
   2  13  -2   10.00    6.50
   2  13  -2   15.26    7.71
   2  13  -2   13.28    8.89
   2  13  -2    7.58    6.51
  -2  13   2   10.37    6.74
  -2  13   1  667.17   50.41
   2  13  -1  570.04   45.26
   2  13  -1  479.58   37.19
   2  13  -1  504.80   40.76
   2  13  -1  500.09   43.17
   2  13  -1  534.31   49.51
  -2  13   1  582.80   45.14
  -2  13   1  538.25   42.75
  -2  13   0   13.90    6.83
  -2  13   0   20.18    8.69
   2  13   0   17.28    7.88
   2  13   0   12.55    6.16
   2  13   0    3.47    3.49
  -2  13   0   11.37    7.34
   2  13   0    5.50    7.07
  -2  13   0   -1.09    6.39
  -2  13  -1  549.23   44.80
   2  13   1  501.42   36.88
   2  13   1  479.54   36.47
   2  13   1  555.94   44.94
  -2  13  -1  510.71   40.35
  -2  13  -1  544.35   44.03
   2  13   1  513.00   45.20
  -2  13  -1  495.24   42.34
  -2  13  -2   15.65    9.74
  -2  13  -2    3.41    3.83
  -2  13  -2    1.92    3.93
   2  13   2   14.98    7.15
   2  13   2   10.66    5.65
  -2  13  -2   12.20    4.27
  -2  13  -3   56.35   13.87
   2  13   3   68.95   15.23
   2  13   3   48.01   10.84
  -2  13  -3   49.28   11.86
   2  13   3   53.53   13.97
  -2  13  -3   75.81   14.97
  -2  13  -3   57.92   11.74
  -2  13  -4    1.10    4.37
  -2  13  -4    2.19    5.89
   2  13   4    0.83    4.09
   2  13   4   -7.00    8.90
  -2  13  -4   -3.46    4.62
  -2  13  -4    1.60    2.93
   2  13   4   -5.04    5.37
  -2  13  -5  120.11   19.81
   2  13   5  162.43   20.44
  -2  13  -5  118.08   17.28
   2  13   5  197.38   26.72
   2  13   5  116.11   18.11
  -2  13  -5  141.52   19.00
  -2  13  -5  160.43   23.09
  -2  13  -6   22.07   11.52
  -2  13  -6   29.40   10.36
  -2  13  -6   23.44    7.52
   2  13   6   31.29    9.82
   2  13   6   18.57    6.47
  -2  13  -6   21.38    7.50
  -2  13  -6   17.07    7.55
  -2  13  -7  364.61   34.79
   2  13   7  446.19   37.65
  -2  13  -7  378.65   29.94
  -2  13  -7  371.48   31.39
  -2  13  -7  423.90   37.42
  -2  13  -7  381.04   34.53
  -2  13  -7  371.11   33.01
  -2  13  -8   -1.02    4.46
  -2  13  -8    4.17    4.06
  -2  13  -8   -0.72    2.93
  -2  13  -8    0.99    4.29
  -2  13  -8   -6.80    6.62
  -2  13  -8   -0.91    2.89
   2  13   9   91.93   15.09
  -2  13  -9  130.63   18.88
  -2  13  -9  130.90   19.60
  -2  13  -9  101.75   16.73
  -2  13  -9  117.78   19.05
  -2  13 -10    0.88    3.79
   2  13  10   -0.80    2.97
  -2  13 -10   -1.70    4.48
  -2  13 -10    3.92    6.27
  -2  13 -10    7.61    6.64
  -2  13 -11   20.45    7.23
   2  13  11   14.78    5.05
  -2  13 -11   18.65    8.23
  -2  13 -11   22.97    8.58
  -2  13 -11   29.58    9.42
   2  13  12    4.43    4.10
  -2  13 -12   -6.12    5.38
  -2  13 -12    3.97    3.92
  -2  13 -12    3.45    3.96
   2  13  13   50.54   10.22
  -2  13 -13   57.82    9.68
  -2  13 -13   49.10   10.85
  -2  13 -13   64.31   12.57
   2  13  14   -1.82    3.47
  -2  13 -14   -0.72    4.10
  -2  13 -14    0.68    2.47
   2  13  15   44.43    8.45
  -2  13 -15   50.33   10.17
  -2  13 -15   56.66   10.07
   2  13  16    4.79    2.49
  -2  13 -16    1.98    2.69
   2  13  17    2.10    1.63
  -2  13 -17    6.87    3.04
  -2  14  16    7.64    3.00
   2  14 -16   11.86    3.51
   2  14 -15    1.45    1.50
   2  14 -14   15.27    4.41
   2  14 -13    1.45    2.38
  -2  14  12    3.26    3.51
   2  14 -12   11.29    4.18
  -2  14  11   13.54    5.32
   2  14 -11   11.81    5.36
   2  14 -11   20.92    6.79
  -2  14  10   -6.69    7.31
   2  14 -10    2.00    3.19
   2  14 -10    0.83    4.71
   2  14 -10   -0.61    2.43
   2  14  -9   -2.94    3.68
   2  14  -9    3.18    3.68
   2  14  -9    8.95    4.10
  -2  14   9    9.09    5.80
   2  14  -9   -8.55    8.65
  -2  14   8  164.47   22.07
   2  14  -8  146.01   22.07
   2  14  -8  143.09   22.31
   2  14  -8  150.08   18.39
   2  14  -8  148.92   21.44
  -2  14   7   74.23   15.29
   2  14  -7   46.98   10.36
   2  14  -7   39.63   12.40
   2  14  -7   86.00   17.24
  -2  14   7   44.17    9.15
   2  14  -7   66.51   15.95
   2  14  -6  117.32   19.80
  -2  14   6  150.73   16.82
   2  14  -6  165.08   19.80
  -2  14   6  137.09   20.31
   2  14  -6  159.59   23.52
   2  14  -6  164.51   24.16
  -2  14   5   -0.82    4.72
   2  14  -5    6.67    7.10
  -2  14   5    8.68    3.87
   2  14  -5   12.46    6.57
   2  14  -5    7.71    4.23
  -2  14   5    8.03    3.35
   2  14  -5   15.36    7.95
  -2  14   4    8.85    3.65
  -2  14   4    4.21    3.95
   2  14  -4   17.87    8.44
   2  14  -4    2.22    4.44
  -2  14   4    2.01    5.07
   2  14  -4   -3.50    5.76
  -2  14   4    3.71    4.76
  -2  14   3   59.35   12.86
   2  14  -3   50.33   13.13
   2  14  -3   54.63   12.53
  -2  14   3   58.33   13.18
   2  14  -3   56.33   13.90
  -2  14   3   54.11   13.13
   2  14  -3   81.73   19.68
  -2  14   2  105.72   17.54
   2  14  -2   92.91   17.23
   2  14  -2  109.93   18.54
   2  14  -2  109.43   19.61
   2  14  -2   96.62   16.22
   2  14  -2  104.60   21.76
  -2  14   2   92.15   16.35
  -2  14   1   18.36    8.76
   2  14  -1   18.33    6.89
   2  14  -1   23.64    8.24
   2  14  -1   30.18    8.83
   2  14  -1   20.39    6.47
  -2  14   1   30.45    9.99
  -2  14   0  343.32   35.37
  -2  14   0  341.88   33.01
   2  14   0  418.35   37.95
   2  14   0  315.50   29.07
   2  14   0  337.30   30.32
   2  14   0  301.84   34.53
  -2  14   0  380.98   34.45
  -2  14   0  391.81   35.29
  -2  14  -1   34.40   10.94
  -2  14  -1   28.21   10.89
  -2  14  -1   23.77    8.32
   2  14   1   21.13    7.37
   2  14   1   12.43    5.36
   2  14   1   33.57   12.70
  -2  14  -1   20.93    8.76
  -2  14  -2  111.50   18.40
  -2  14  -2   82.68   15.67
   2  14   2   81.71   14.20
   2  14   2  108.80   18.90
  -2  14  -2   78.58   14.41
   2  14   2  103.44   18.29
  -2  14  -2  105.57   18.32
  -2  14  -3   45.71   12.46
  -2  14  -3   38.30    9.12
   2  14   3   42.14   13.04
   2  14   3   35.76    9.66
   2  14   3   37.44   10.86
  -2  14  -3   39.28   10.36
  -2  14  -4    4.38    4.59
   2  14   4    2.42    3.98
   2  14   4   -3.20    3.56
  -2  14  -4   -6.65    6.85
   2  14   4    4.94    6.95
  -2  14  -4   13.06    6.91
  -2  14  -4   -2.25    4.60
  -2  14  -5   10.05    5.97
  -2  14  -5   -1.08    5.00
  -2  14  -5    9.51    5.24
   2  14   5    4.02    3.55
   2  14   5   12.56    7.19
   2  14   5    4.70    5.34
  -2  14  -5   14.21    6.36
   2  14   6  153.89   18.60
   2  14   6  167.41   22.06
  -2  14  -6  144.13   18.00
  -2  14  -6  151.12   20.51
  -2  14  -6  131.54   19.46
  -2  14  -6  122.46   17.66
  -2  14  -7   58.86   13.30
  -2  14  -7   45.87    9.59
   2  14   7   63.62   11.73
   2  14   7   54.67   11.75
  -2  14  -7   40.78   10.80
  -2  14  -7   57.43   13.24
  -2  14  -8  147.70   17.74
  -2  14  -8  133.94   19.11
  -2  14  -8  159.97   21.19
  -2  14  -8  162.44   20.96
  -2  14  -9   -2.55    5.78
  -2  14  -9    2.48    4.48
  -2  14  -9    3.24    3.29
  -2  14  -9    3.69    4.82
  -2  14 -10    3.88    5.10
   2  14  10   -2.09    4.99
  -2  14 -10   -3.58    4.28
  -2  14 -10    3.02    3.70
  -2  14 -10   11.29    5.50
  -2  14 -11   13.06    5.86
   2  14  11   25.81    6.77
  -2  14 -11   17.64    7.42
  -2  14 -11   20.13    6.83
  -2  14 -11   13.06    6.60
   2  14  12   16.56    6.24
  -2  14 -12   18.12    6.96
  -2  14 -12   10.82    3.33
  -2  14 -12   12.68    5.45
   2  14  13   -1.65    3.26
  -2  14 -13   -0.62    2.53
  -2  14 -13    4.00    5.24
  -2  14 -13   -2.73    2.65
   2  14  14   16.84    4.84
  -2  14 -14   17.95    5.75
  -2  14 -14   11.64    4.86
   2  14  15   10.15    3.45
  -2  14 -15    5.94    3.13
  -2  14 -15   12.69    4.40
   2  14  16   22.89    4.80
  -2  14 -16   17.45    5.14
  -2  14 -16   11.75    3.54
  -2  15  15    7.00    2.21
   2  15 -15    4.35    2.04
  -2  15  14    5.74    2.62
   2  15 -14    2.10    1.25
  -2  15  13   -0.38    1.93
   2  15 -13   -0.35    1.66
  -2  15  12    1.74    1.55
  -2  15  12   -1.00    2.27
   2  15 -12    0.40    1.34
  -2  15  11   -2.39    3.54
  -2  15  11    3.33    3.28
   2  15 -11   -1.13    2.10
  -2  15  10    6.88    4.75
  -2  15  10    4.52    2.62
   2  15 -10    5.50    3.85
  -2  15   9    0.77    2.56
  -2  15   9    2.59    2.71
   2  15  -9    0.80    3.13
  -2  15   8    2.62    2.57
   2  15  -8   -2.97    4.85
   2  15  -8   11.99    5.26
  -2  15   8    4.17    5.99
   2  15  -8   -3.41    4.93
   2  15  -8    0.91    3.80
   2  15  -7   83.79   15.25
   2  15  -7   96.96   16.32
  -2  15   7   74.71   10.79
  -2  15   7  101.46   16.67
   2  15  -7  107.06   14.42
   2  15  -7  104.53   17.66
  -2  15   6   17.05    7.48
   2  15  -6   22.57    8.83
  -2  15   6   23.24    6.10
   2  15  -6   35.21    9.80
   2  15  -6   19.94    6.37
   2  15  -6   25.15    9.91
  -2  15   5   -0.53    2.02
  -2  15   5    3.63    5.37
   2  15  -5   -3.69    5.61
   2  15  -5   10.30    6.55
   2  15  -5    3.03    3.61
  -2  15   4   -1.54    3.54
   2  15  -4    0.94    4.73
   2  15  -4    3.96    5.65
   2  15  -4    4.65    4.10
  -2  15   4    3.66    3.40
  -2  15   4   -7.66    5.76
  -2  15   3    2.49    2.84
   2  15  -3    4.72    5.06
  -2  15   3    8.23    4.66
   2  15  -3    2.44    2.41
   2  15  -3    0.90    2.95
   2  15  -3   -7.21    8.94
  -2  15   3   -2.62    3.88
  -2  15   2   22.97    8.33
   2  15  -2   18.26    7.91
   2  15  -2   25.50    8.14
   2  15  -2   24.59    9.39
   2  15  -2   29.07    8.76
   2  15  -2   17.07    7.90
  -2  15   2   32.40   10.20
  -2  15   1   72.02   13.88
   2  15  -1   97.86   15.24
   2  15  -1   77.69   14.00
   2  15  -1   91.28   15.93
   2  15  -1   85.63   18.81
  -2  15   1   65.93   13.52
  -2  15   0   -3.77    5.05
   2  15   0    6.27    7.34
  -2  15   0    6.45    4.09
   2  15   0   10.68    5.76
   2  15   0    6.95    7.09
  -2  15   0    4.77    5.10
  -2  15  -1   72.14   14.33
  -2  15  -1   76.71   14.37
   2  15   1   84.23   15.79
   2  15   1   80.52   13.98
   2  15   1   60.19   14.83
  -2  15  -1   46.57   12.25
  -2  15  -2   17.80    7.16
   2  15   2   23.25    7.38
  -2  15  -2   14.39    6.67
   2  15   2   25.62    9.25
   2  15   2   24.67    9.42
  -2  15  -2   20.43    6.46
   2  15   3   -6.75    7.37
  -2  15  -3   -0.81    3.64
   2  15   3   -0.78    2.87
  -2  15  -3   -3.82    5.86
   2  15   3    2.91    4.96
   2  15   4   -0.77    3.55
   2  15   4   -0.95    5.37
  -2  15  -4   -2.32    3.47
   2  15   4  -10.15    6.58
  -2  15  -5    0.89    4.43
  -2  15  -5   -6.66    6.03
   2  15   5    0.92    4.12
   2  15   5    1.50    4.10
   2  15   5    7.92    5.74
  -2  15  -5   11.24    4.58
  -2  15  -6    4.39    5.34
  -2  15  -6   21.99    6.27
   2  15   6   24.35    8.19
   2  15   6   23.60    7.38
  -2  15  -6   25.52    9.14
  -2  15  -6   30.20    9.01
  -2  15  -7  107.85   16.74
   2  15   7  104.38   14.83
  -2  15  -7  106.46   14.41
   2  15   7  108.84   16.04
  -2  15  -7   91.33   15.17
  -2  15  -7   83.34   14.15
  -2  15  -8    5.56    3.88
   2  15   8   -3.26    5.07
  -2  15  -8    3.91    4.55
  -2  15  -8   -0.81    3.06
  -2  15  -9   -1.46    4.63
  -2  15  -9    5.79    4.94
  -2  15  -9   -4.81    3.32
  -2  15 -10    3.94    3.39
  -2  15 -10    7.79    3.87
  -2  15 -10   12.88    5.94
  -2  15 -11   -2.76    4.06
  -2  15 -11   -1.13    3.75
   2  15  12    3.49    2.97
  -2  15 -12    0.47    2.36
   2  15  13    1.32    2.21
  -2  15 -13   -0.52    1.93
   2  15  14    5.24    2.25
  -2  15 -14   11.08    4.54
   2  15  15    8.95    3.08
  -2  15 -15   13.93    4.29
  -2  16  14    7.11    2.07
  -2  16  13    0.51    1.08
  -2  16  12    5.65    3.04
  -2  16  12    3.96    2.49
  -2  16  11    3.09    2.19
  -2  16  11   -0.44    2.32
  -2  16  10    2.12    2.80
  -2  16  10   -1.12    1.79
   2  16 -10    2.14    3.29
  -2  16   9   -0.61    3.48
  -2  16   9    2.36    2.72
   2  16  -9    0.63    2.88
  -2  16   8    6.11    3.98
  -2  16   8    8.57    3.11
   2  16  -8   12.36    7.15
   2  16  -7    0.52    2.03
  -2  16   7    5.84    3.59
  -2  16   7    5.46    2.60
   2  16  -7    4.69    2.63
   2  16  -7   -3.24    6.98
   2  16  -6   15.34    5.61
  -2  16   6   28.22    7.62
   2  16  -6   30.65    7.52
  -2  16   6   13.39    3.60
   2  16  -6    7.70    4.19
  -2  16   5   -0.78    4.18
   2  16  -5   -1.25    2.68
   2  16  -5   -2.11    4.63
  -2  16   4   21.37    6.69
  -2  16   4    9.49    5.30
   2  16  -4    2.80    3.66
   2  16  -4   27.84    7.78
  -2  16   4   11.18    4.28
  -2  16   3   14.79    6.24
   2  16  -3   18.58    6.79
  -2  16   3   18.31    8.11
   2  16  -3   20.05    6.76
   2  16  -3   15.98    7.39
  -2  16   3   22.44    6.65
  -2  16   2   -0.75    3.63
   2  16  -2   -2.01    3.60
   2  16  -2    0.91    3.67
   2  16  -2   -1.42    2.27
   2  16  -2   13.28    7.07
  -2  16   2    8.82    7.18
  -2  16   1   -2.38    2.77
   2  16  -1    2.75    3.78
   2  16  -1   -3.61    5.24
  -2  16   1    8.28    6.37
   2  16  -1    8.15    4.33
  -2  16   0   34.47    9.44
  -2  16   0   39.09    9.72
   2  16   0   34.93    8.45
   2  16   0   50.06   11.55
   2  16   0   29.79   10.87
  -2  16   0   35.74   10.66
  -2  16  -1    9.15    5.33
  -2  16  -1    0.78    5.18
   2  16   1   -0.73    3.46
   2  16   1    1.75    5.68
  -2  16  -1    2.59    5.04
   2  16   1    5.69    6.75
  -2  16  -2   -0.83    5.20
  -2  16  -2    0.76    4.71
   2  16   2   -5.95    7.57
   2  16   2    5.83    3.74
   2  16   2   -4.50    5.04
  -2  16  -2    0.87    4.11
  -2  16  -3   12.15    6.73
   2  16   3   18.27    6.06
   2  16   3   17.26    6.73
  -2  16  -3    6.54    4.67
   2  16   3   11.98    5.58
  -2  16  -3   14.44    7.55
   2  16   4   17.74    6.88
   2  16   4   20.95    6.23
  -2  16  -4   20.17    7.08
   2  16   4   20.43    7.15
  -2  16  -4    0.82    3.02
  -2  16  -5    3.07    3.18
  -2  16  -5    2.66    3.47
   2  16   5    5.28    3.90
   2  16   5   -5.41    4.82
  -2  16  -6   20.09    6.30
  -2  16  -6   22.74    6.22
   2  16   6   20.22    6.58
   2  16   6   19.36    6.25
  -2  16  -6   23.30    6.09
  -2  16  -7    3.60    3.70
   2  16   7   10.05    4.08
   2  16   7    8.47    4.25
  -2  16  -7   -1.41    2.90
  -2  16  -7    0.62    3.08
  -2  16  -8    3.33    3.37
   2  16   8    7.82    3.61
  -2  16  -8   10.64    3.78
  -2  16  -8    1.91    2.66
   2  16   9   -2.62    3.31
  -2  16  -9    3.66    3.86
  -2  16  -9   -0.62    1.76
  -2  16 -10   -3.21    3.70
  -2  16 -10   -1.17    3.16
  -2  16 -11    1.81    2.49
  -2  16 -11   12.56    5.03
  -2  16 -12    6.67    3.39
  -2  16 -12    1.35    1.82
   2  16  13    1.02    1.39
  -2  16 -13   -4.12    2.97
   2  16  14   10.45    2.98
  -2  16 -14    5.10    1.85
  -2  17  12    0.39    1.15
  -2  17  11    0.30    1.95
  -2  17  11   -1.87    1.38
  -2  17  10   16.37    4.80
  -2  17  10    9.22    2.79
  -2  17   9   17.74    5.21
  -2  17   9   14.88    3.54
   2  17  -9   11.79    4.90
  -2  17   8    9.91    4.29
  -2  17   8    6.99    2.83
   2  17  -8    6.61    3.03
  -2  17   7   26.80    5.23
  -2  17   7   36.06    7.81
   2  17  -7   20.20    6.44
   2  17  -6   12.43    3.96
  -2  17   6   20.17    5.63
   2  17  -6   19.26    7.02
   2  17  -5   13.34    4.47
  -2  17   5    6.38    3.90
   2  17  -4    7.26    3.38
   2  17  -4   10.34    5.19
  -2  17   4    0.65    4.46
   2  17  -4    8.31    5.57
  -2  17   4    2.44    2.61
  -2  17   3    1.70    2.37
   2  17  -3    2.74    3.02
  -2  17   3    6.60    4.62
   2  17  -3    0.79    3.85
  -2  17   3    0.65    3.69
  -2  17   2   21.50    6.72
   2  17  -2   22.38    5.93
  -2  17   2   12.25    3.62
   2  17  -2   32.65    9.17
  -2  17   1   31.35    8.21
   2  17  -1   43.29    8.39
  -2  17   1   54.58   11.30
   2  17  -1   51.72   12.09
  -2  17   0    2.04    3.21
   2  17   0    2.42    2.05
  -2  17   0   -2.65    4.76
   2  17   0    5.94    3.98
  -2  17   0    2.92    2.84
   2  17   0   -2.42    5.11
  -2  17  -1   32.35    7.79
   2  17   1   37.02    9.82
  -2  17  -1   37.53    8.12
   2  17   1   40.22    8.89
  -2  17  -1   43.10   10.23
   2  17   1   37.42    9.09
  -2  17  -2   21.22    6.31
  -2  17  -2   23.45    6.31
   2  17   2   46.54    9.89
   2  17   2   26.89    6.19
   2  17   2   44.68   10.11
  -2  17  -2   27.32    7.47
  -2  17  -3   -0.67    3.64
   2  17   3   -0.61    3.34
   2  17   3   -1.37    2.71
  -2  17  -3    1.22    2.92
   2  17   3   -9.23    6.02
  -2  17  -3   -3.60    5.82
  -2  17  -4   -3.48    3.38
   2  17   4    3.53    2.25
   2  17   4    1.32    3.06
  -2  17  -5    7.71    3.89
   2  17   5    3.11    4.44
   2  17   5   16.86    5.39
  -2  17  -6    9.68    3.80
   2  17   6   14.85    4.83
   2  17   6    2.86    2.81
   2  17   7   31.93    6.91
   2  17   7   33.97    7.03
  -2  17  -7   16.85    5.27
   2  17   8    7.01    4.01
  -2  17  -8    7.52    4.92
  -2  17  -8    0.87    2.44
   2  17   9   17.74    4.74
  -2  17  -9   11.70    5.01
  -2  17  -9   20.11    5.25
   2  17  10   12.62    4.06
  -2  17 -10    2.48    2.18
  -2  17 -10    7.64    2.89
  -2  17 -11    5.53    2.95
  -2  17 -11    0.33    1.68
  -2  17 -12    0.92    1.25
  -2  17 -12   -0.54    1.11
  -2  18  10   13.80    3.26
  -2  18   9    7.82    2.63
  -2  18   8   85.50    9.94
  -2  18   7    8.89    3.05
   2  18  -7    8.36    3.53
  -2  18   6   55.56    8.59
   2  18  -6   33.61    7.40
  -2  18   5    6.40    3.50
   2  18  -4   17.30    4.12
  -2  18   4   24.05    6.62
   2  18  -4   20.51    6.67
   2  18  -3    3.17    1.93
  -2  18   3    4.71    3.48
  -2  18   3    0.98    1.91
   2  18  -3    6.61    4.35
   2  18  -2   35.66    6.61
   2  18  -2   32.98    8.74
  -2  18   2   50.66    9.21
   2  18  -1   12.07    3.92
   2  18  -1   13.85    5.45
  -2  18   1   11.41    5.29
   2  18   0  108.51   12.40
  -2  18   0  115.75   13.64
  -2  18   0  131.34   15.05
   2  18   0  110.18   14.74
  -2  18  -1   10.84    5.09
   2  18   1   12.37    4.51
  -2  18  -1    0.52    3.09
  -2  18  -1   16.32    6.09
   2  18   1   10.27    4.73
  -2  18  -2   38.39    8.22
   2  18   2   47.77    8.31
  -2  18  -2   47.51    8.63
  -2  18  -2   44.45    8.54
  -2  18  -3    4.23    3.11
  -2  18  -3    1.95    2.54
   2  18   3    1.88    2.02
  -2  18  -3    7.61    4.38
  -2  18  -4   22.63    6.13
   2  18   4   21.93    5.47
  -2  18  -4   21.85    5.90
   2  18   5    8.81    3.58
  -2  18  -5   11.62    5.01
   2  18   6   51.32    7.94
   2  18   7    8.35    2.86
  -2  18  -7    4.50    3.82
   2  18   8   73.92    9.02
  -2  18  -8   55.18    8.68
   2  18   9    5.06    2.31
  -2  18  -9    6.25    2.98
   2  18  10   16.74    3.77
  -2  18 -10   15.49    3.36
  -2  19   7  107.48    9.87
  -2  19   6    3.28    2.07
  -2  19   5   44.74    7.06
  -2  19   4    1.90    2.09
  -2  19   3   33.41    6.60
  -2  19   3   22.07    4.86
   2  19  -2    3.50    1.79
  -2  19   2    0.37    2.01
   2  19  -1   58.73    7.21
  -2  19   1   91.70   11.22
   2  19   0    6.89    2.40
  -2  19   0    7.99    3.90
  -2  19   0    6.60    3.36
  -2  19  -1   76.34    9.47
   2  19   1   80.70    8.71
  -2  19  -1   93.97   11.61
  -2  19  -2    1.92    2.07
   2  19   2    4.28    2.33
  -2  19  -3   23.17    4.81
   2  19   3   24.99    5.06
  -2  19  -3   20.94    5.06
   2  19   4    4.53    2.72
  -2  19  -4    2.12    3.53
   2  19   5   40.02    6.07
  -2  19  -5   40.44    6.76
   2  19   6    2.08    1.89
   2  19   7   83.73    8.35
  -2  19  -7   55.29    7.31
  -2  20   2    9.94    2.90
  -2  20   1    2.25    1.60
  -2  20   0   20.77    4.36
  -2  20   0   18.73    4.11
   2  20   1    1.01    0.83
  -2  20  -1    8.90    3.00
   2  20   2    8.95    2.16
  -2  20  -2   17.81    4.29
   3   0 -23    1.78    1.66
   3   0 -22    6.06    2.25
   3   0 -21   13.39    5.17
   3   0 -21   22.29    8.36
   3   0 -20    0.71    3.31
   3   0 -19   11.61    6.42
   3   0 -18   -1.23    5.45
   3   0 -17    5.73    8.79
   3   0 -16   -6.64    4.86
   3   0 -16   -3.17    6.76
   3   0 -15   90.25   21.91
   3   0 -15   92.66   21.05
   3   0 -14   25.57   14.01
   3   0 -14   12.91    9.12
   3   0 -13   20.88   11.39
   3   0 -13    5.93    8.63
   3   0 -12   -3.95    8.46
   3   0 -11   12.16    6.82
   3   0 -10   -1.98    7.57
   3   0  -9   30.27   12.85
   3   0  -8   -6.25   12.16
   3   0  -7 1990.24   98.13
   3   0  -7 1897.59   94.15
   3   0  -6   13.67    7.78
   3   0  -6   14.16    8.71
   3   0  -5    1.98    7.57
   3   0  -5    9.68    8.38
   3   0  -4   19.15    8.66
  -3   0   3  505.64   36.80
  -3   0   2   42.19    9.94
  -3   0   1 3800.91  119.88
  -3   0   0   -2.84    5.34
  -3   0  -1 3821.46  120.48
  -3   0  -2   42.36    9.54
  -3   0  -3  447.49   32.68
  -3   0  -4    5.95    5.28
   3   0   4   15.98   10.27
   3   0   5   -1.39    6.52
  -3   0  -5    3.15    3.77
   3   0   6   21.00   11.23
  -3   0  -6   12.68    7.97
   3   0   7 2012.39  113.53
  -3   0  -7 1701.09   84.94
   3   0   8    4.65   10.76
  -3   0  -8    6.92    5.73
   3   0   9   -8.29   13.94
  -3   0  -9   11.93    7.78
   3   0  10   19.06   16.83
   3   0  11   46.85   22.50
  -3   0 -11   12.12   10.12
  -3   0 -12   -7.17   17.13
   3   0  12   -6.44   15.41
   3   0  13   11.97    9.06
  -3   0 -13   29.30   12.96
  -3   0 -14    2.07    9.29
   3   0  14    5.41    9.54
  -3   0 -14   -3.46    8.01
   3   0  15  118.95   29.62
  -3   0 -15   82.48   20.38
  -3   0 -15  108.86   23.66
   3   0  16   12.83   11.38
  -3   0 -16   16.75    9.39
  -3   0 -16   12.61    8.52
  -3   0 -17    3.64    5.69
  -3   0 -18    3.09    4.95
  -3   0 -19    5.11    4.35
   3   0  20    0.85    3.80
  -3   0 -20    2.04    2.13
   3   0  21    9.82    4.16
   3   0  22   -0.95    2.41
   3   0  23    2.19    1.96
   3   1 -22   13.04    3.51
   3   1 -22   16.31    4.52
   3  -1 -22    5.26    3.39
   3   1 -21   18.18    6.63
   3   1 -21   11.75    4.94
   3   1 -20    2.98    3.76
   3  -1 -20    3.36    3.50
   3   1 -19    1.88    4.88
   3  -1 -19   -7.59    5.83
   3  -1 -18   33.21   12.40
   3  -1 -17   54.83   14.29
   3  -1 -16   17.46    8.04
   3  -1 -16   10.48    6.15
   3  -1 -15   11.51    7.91
   3  -1 -15    9.68    9.56
   3  -1 -14   63.16   17.17
   3  -1 -14   39.73   15.87
   3  -1 -13  157.29   27.98
   3  -1 -13  132.66   27.16
   3  -1 -12   40.89   14.49
   3  -1 -11   30.53   11.66
   3  -1 -10   12.38    9.21
   3  -1  -9  787.58   64.06
   3  -1  -8  425.83   44.17
   3  -1  -7   53.15   13.41
   3  -1  -7   46.29   13.84
   3  -1  -6  570.45   43.66
   3  -1  -6  627.33   47.07
   3  -1  -5 2284.88   93.44
   3  -1  -5 2262.64   93.69
   3  -1  -4  658.81   41.48
  -3  -1   3   26.39    8.05
  -3  -1   2  105.91   14.12
  -3  -1   1 2526.95   88.89
  -3  -1   0 2392.06   85.30
  -3  -1  -1 2566.49   88.39
  -3  -1  -2  101.36   14.65
  -3   1  -2  102.34    7.13
  -3  -1  -3   30.99    8.73
   3  -1   4  595.15   45.12
  -3  -1  -4  570.71   37.06
   3  -1   5 1989.63   97.38
  -3  -1  -5 1799.30   76.33
  -3  -1  -6  444.49   36.79
   3  -1   6  608.69   54.13
   3  -1   7   77.94   21.96
  -3  -1  -7   33.59   11.78
   3  -1   8  415.75   51.59
  -3  -1  -8  322.37   38.74
   3  -1   9 1031.40   91.00
  -3  -1  -9  733.43   63.95
   3  -1  10   47.86   25.61
   3  -1  11   71.69   30.58
  -3  -1 -11   48.04   16.96
   3  -1  12   61.25   25.71
  -3  -1 -12   14.19   14.35
   3  -1  13  205.46   42.36
  -3  -1 -13  191.14   35.10
   3  -1  14   71.23   25.21
  -3  -1 -14   71.19   21.92
  -3   1 -14  103.20   24.15
   3  -1  15    2.43   11.21
  -3  -1 -15   11.03    7.83
  -3   1 -15   -1.59    7.88
   3  -1  16   15.09    9.68
  -3  -1 -16    8.20    6.84
  -3   1 -16    4.31    5.32
  -3   1 -17   54.53   14.01
  -3   1 -18   19.77    8.76
  -3   1 -19   -6.50    6.39
   3  -1  20    0.82    3.60
  -3   1 -20    3.73    3.47
   3  -1  21    6.31    3.60
  -3   1 -21    3.97    3.11
   3  -1  22    8.21    3.79
   3   2 -22   -0.38    3.59
   3   2 -22    9.52    3.88
   3  -2 -22    6.54    3.47
   3   2 -21   15.88    6.76
   3   2 -21    6.33    4.30
   3   2 -20   17.77    6.92
   3   2 -19   24.51   10.07
   3  -2 -19   16.89    5.74
   3   2 -18    6.81    6.58
   3  -2 -18   17.55    9.32
   3  -2 -17   43.06   14.30
   3   2 -17   52.28   14.61
   3  -2 -16   95.31   21.63
   3   2 -16  116.41   24.58
   3   2 -16   88.34   20.70
   3  -2 -16   85.40   18.58
   3   2 -15   -8.51    5.44
   3  -2 -15    7.92    8.51
   3  -2 -15   -3.06    7.45
   3   2 -15    6.54    4.79
   3   2 -14   22.82    9.54
   3  -2 -14    8.07    5.22
   3   2 -14   36.00   16.01
   3  -2 -14   -6.54    4.90
   3  -2 -13   19.82    9.30
   3   2 -13   43.53   15.33
   3  -2 -13   17.37   10.70
   3   2 -13   23.62   12.64
   3  -2 -12  328.91   40.57
   3   2 -12  367.17   45.08
   3  -2 -11  381.85   43.45
   3   2 -11  403.42   46.00
   3   2 -10   60.05   15.98
   3  -2 -10   54.34   15.02
   3   2  -9   34.73   14.27
   3  -2  -9   66.04   16.62
   3   2  -8 1722.97   89.72
   3  -2  -8 1759.75   91.75
   3  -2  -7  296.11   33.50
   3  -2  -7  303.76   32.18
   3   2  -7  367.38   37.80
   3   2  -7  321.28   33.72
   3  -2  -6  250.67   28.63
   3   2  -6  220.53   26.64
   3  -2  -6  196.92   23.75
   3   2  -6  191.78   23.94
   3   2  -5  213.35   24.27
   3  -2  -5  258.19   26.62
   3  -2  -5  224.93   24.56
   3   2  -5  246.91   25.76
   3   2  -4 4810.09  149.37
  -3  -2   4 4824.39  150.88
  -3   2   4 4968.85  150.70
   3  -2  -4 4769.31  148.71
  -3   2   3 5927.14  170.62
  -3  -2   3 5873.30  169.54
  -3  -2   2   79.40   12.53
  -3   2   2   81.53   12.29
  -3  -2   1  174.23   18.24
  -3   2   1  171.75   18.35
  -3  -2   0 9696.20  253.28
  -3   2   0 9999.00  255.21
  -3   2  -1  184.97   18.35
  -3  -2  -1  141.45   16.33
  -3  -2  -2  100.33   13.79
  -3   2  -2   81.59   12.86
  -3   2  -2   68.63    7.73
  -3  -2  -3 5693.67  166.90
  -3   2  -3 6024.85  168.06
  -3   2  -4 4475.04  132.63
   3  -2   4 4094.06  144.72
  -3  -2  -4 4237.26  130.95
   3   2   4 3864.80  138.67
  -3  -2  -5  191.56   21.95
   3  -2   5  209.98   29.40
  -3   2  -5  189.42   21.44
   3   2   5  226.80   28.33
   3   2   6  210.67   31.67
   3  -2   6  212.06   31.50
  -3   2  -6  148.10   21.66
  -3  -2  -6  167.26   22.64
   3  -2   7  350.79   43.29
   3   2   7  307.90   38.97
  -3  -2  -7  264.53   31.99
  -3   2  -7  257.09   31.06
   3   2   8 1916.33  112.11
  -3   2  -8 1456.25   87.46
   3  -2   8 1970.13  116.36
  -3  -2  -8 1615.59   91.94
   3  -2   9  120.51   28.93
   3   2   9   47.75   20.26
   3  -2  10   59.13   18.32
   3   2  10   74.64   26.65
   3   2  11  468.84   62.48
  -3   2 -11  284.07   43.89
  -3  -2 -11  333.26   49.44
   3  -2  11  411.66   61.48
   3  -2  12  491.18   68.82
   3   2  12  413.93   58.13
  -3  -2 -12  348.09   49.15
  -3   2 -12  340.83   47.24
   3  -2  13   27.03   13.12
   3   2  13   23.05   15.49
  -3   2 -13   18.65    7.68
  -3  -2 -13   15.42   11.87
  -3   2 -13   22.98   10.54
   3  -2  14   16.51   12.81
   3   2  14   28.26   15.61
  -3  -2 -14   14.04   10.43
  -3   2 -14   40.31   17.39
  -3   2 -14   12.89    6.45
   3   2  15    6.33    5.32
  -3   2 -15    3.51    6.04
  -3  -2 -15   -7.22    9.91
   3  -2  15   12.22   11.80
  -3   2 -15    6.19    6.76
   3  -2  16  144.53   30.60
   3   2  16   91.20   22.52
  -3  -2 -16   59.40   16.64
  -3   2 -16  115.21   23.71
  -3   2 -16  122.68   23.99
  -3   2 -17   60.53   15.26
  -3   2 -18    8.98    4.78
   3  -2  19   22.90    9.19
   3   2  19    9.58    6.36
  -3   2 -19   36.09   11.03
   3   2  20    6.32    6.42
   3  -2  20   14.19    6.93
  -3   2 -20   13.97    6.35
   3  -2  21    2.99    2.17
  -3   2 -21   -1.21    2.73
   3   2  22   -0.45    2.23
  -3   2 -22   -3.92    3.46
   3   3 -22    5.37    2.62
   3   3 -22    4.86    3.72
   3  -3 -22    6.39    2.98
   3   3 -21   -1.54    4.33
   3   3 -21    9.20    3.60
   3   3 -20    2.37    3.79
   3   3 -20   15.41    8.80
   3   3 -19   17.19    7.19
   3  -3 -18   54.23   13.60
   3   3 -18   48.48   13.65
   3   3 -18   53.86   13.57
   3  -3 -17   11.15    6.57
   3   3 -17   11.44    7.02
   3   3 -16   15.13    7.81
   3  -3 -16    5.79    5.26
   3  -3 -16   14.89    8.31
   3   3 -16   21.43   11.62
   3  -3 -15   39.45   13.27
   3   3 -15   37.10   11.25
   3  -3 -15   37.83   13.67
   3   3 -15   52.14   15.99
   3  -3 -14    4.61    8.54
   3   3 -14    1.66    6.63
   3   3 -14    1.73    6.06
   3  -3 -14   -1.55    7.69
   3   3 -13   32.35   13.21
   3  -3 -13   26.33   12.02
   3  -3 -13    8.22    8.22
   3   3 -13   22.59   13.44
   3   3 -12  201.10   32.53
   3  -3 -12  141.95   26.50
   3   3 -11  189.97   29.60
   3  -3 -11  162.27   27.10
   3  -3 -10  670.12   55.63
   3   3 -10  762.62   59.70
   3  -3  -9   97.34   20.44
   3   3  -9   72.42   17.30
   3  -3  -8    1.24    7.61
   3   3  -8   -3.69   10.82
   3  -3  -7  487.05   41.25
   3  -3  -7  438.68   39.44
   3   3  -7  495.96   41.15
   3   3  -7  505.15   44.84
   3  -3  -6  131.96   19.77
   3   3  -6  112.31   18.24
   3   3  -6  127.71   20.25
   3  -3  -6  129.49   19.52
   3   3  -5  691.52   43.30
   3  -3  -5  723.52   43.52
   3   3  -5  707.48   44.29
   3  -3  -5  607.33   41.21
  -3  -3   4 2878.42   96.65
   3  -3  -4 2944.49   97.88
  -3   3   4 2994.75   98.11
   3   3  -4 2794.30   95.44
  -3  -3   3  878.56   46.08
  -3   3   3  967.98   47.56
  -3   3   2 2413.79   81.63
  -3  -3   2 2294.62   83.37
  -3  -3   1  224.79   20.69
  -3   3   1  177.84   18.18
  -3   3   0 1828.69   68.84
  -3  -3   0 1812.28   67.94
  -3   3  -1  225.57   20.30
  -3  -3  -1  219.78   20.39
  -3   3  -1  176.60   14.88
  -3  -3  -2 2456.46   84.63
  -3   3  -2 2529.32   84.84
  -3   3  -2 2260.61   72.31
  -3   3  -3  909.52   46.15
  -3  -3  -3  946.69   47.14
  -3  -3  -4 2658.32   92.01
   3  -3   4 2696.05  104.85
  -3   3  -4 2669.92   91.82
   3  -3   5  701.96   52.37
   3   3   5  575.84   44.70
  -3  -3  -5  606.62   39.83
  -3   3  -5  625.47   40.01
   3  -3   6  156.90   26.86
   3   3   6   93.59   18.46
  -3   3  -6  100.26   18.46
  -3  -3  -6  125.97   19.18
   3  -3   7  540.01   52.82
   3   3   7  535.40   49.79
  -3  -3  -7  461.55   42.76
  -3   3  -7  433.70   40.72
   3   3   8   12.62    6.76
  -3  -3  -8   13.48    9.25
  -3   3  -8   20.89   10.85
   3  -3   8    7.85   10.08
   3   3   9  108.77   27.77
   3  -3   9   77.49   20.36
   3   3  10  884.69   79.65
   3  -3  10  902.97   83.46
  -3  -3 -10  637.46   67.57
  -3   3 -10  594.19   63.31
   3  -3  11  262.60   45.63
   3   3  11  182.20   36.17
  -3   3 -11  147.15   31.75
  -3  -3 -11  164.82   37.22
   3  -3  12  224.58   43.93
   3   3  12  190.71   36.05
  -3  -3 -12  152.97   33.01
  -3   3 -12  173.03   34.20
   3  -3  13   23.63   14.38
   3   3  13    9.63    7.58
  -3   3 -13   43.74   16.67
  -3  -3 -13   15.13   10.41
  -3   3 -13   34.00   11.24
  -3   3 -13   19.94   12.01
   3  -3  14   -2.69    8.61
   3   3  14    2.21    7.73
  -3   3 -14    7.36    8.30
  -3  -3 -14   11.72   12.80
  -3   3 -14   11.87    6.29
  -3   3 -14    9.11    8.08
   3   3  15   33.54   15.23
  -3   3 -15   30.25   13.95
   3  -3  15   57.06   20.29
  -3  -3 -15   34.93   16.20
  -3   3 -15   49.58   14.87
  -3   3 -15   68.80   19.24
  -3   3 -16   27.25   11.49
   3  -3  16   18.80    9.47
   3   3  16   19.46   13.85
  -3  -3 -16   17.04   11.20
  -3   3 -16   10.74    5.79
  -3   3 -16   16.60    8.82
  -3   3 -17    6.26    4.24
  -3   3 -17   12.75    8.21
  -3   3 -18   49.03   14.46
   3   3  19    0.91    3.98
  -3   3 -19   -1.94    5.36
   3  -3  20    5.92    3.31
   3   3  20   -1.50    4.81
  -3   3 -20    4.75    2.99
   3   3  21   -0.59    2.84
   3  -3  21   -2.80    3.44
  -3   3 -21    3.70    3.20
   3   3  22    3.44    2.27
   3  -3  22   -0.80    1.70
   3   4 -22   -1.50    2.16
   3   4 -22   -2.00    1.65
   3  -4 -22   -0.33    1.28
   3  -4 -21    8.70    3.88
   3   4 -21    7.88    3.38
   3   4 -21    5.72    4.81
   3   4 -20   -3.16    5.28
   3   4 -19   38.33   11.66
   3   4 -18   -1.23    6.91
   3  -4 -17   23.33    9.59
   3   4 -17   27.37   10.47
   3   4 -17   52.80   16.55
   3   4 -16    4.13    3.47
   3  -4 -16    6.65    3.85
   3  -4 -16    6.40    4.06
   3   4 -16   -4.20    7.92
   3   4 -15   10.32    8.33
   3  -4 -15   -2.79    6.08
   3   4 -15   -1.55    9.01
   3  -4 -15    4.13    5.59
   3   4 -14   14.05    7.17
   3  -4 -14    1.44    5.26
   3   4 -14   16.85    7.98
   3  -4 -13  -13.03    7.33
   3   4 -13   11.05   12.14
   3   4 -13    1.82    4.26
   3  -4 -13   -1.55    7.57
   3  -4 -12   15.79    8.96
   3   4 -12    4.69    9.39
   3   4 -11  427.59   43.99
   3  -4 -11  353.51   38.81
   3   4 -10   95.45   20.25
   3  -4 -10   72.53   17.77
   3  -4  -9  119.42   21.01
   3   4  -9  128.33   22.90
   3   4  -8  152.63   23.09
   3  -4  -8  160.75   22.97
   3   4  -8  132.17   20.78
   3  -4  -7  127.07   19.80
   3   4  -7   89.73   16.50
   3   4  -7  101.87   19.33
   3   4  -6  654.71   42.58
   3  -4  -6  664.80   42.10
   3   4  -6  654.85   47.61
   3  -4  -6  541.08   41.07
   3  -4  -5 1063.72   52.15
   3  -4  -5  916.65   51.12
  -3  -4   5  984.13   53.56
   3   4  -5 1038.02   55.68
  -3   4   5 1001.38   52.72
   3   4  -5 1036.58   52.97
  -3   4   4  266.07   24.05
   3  -4  -4  235.21   22.33
   3   4  -4  259.90   24.38
  -3  -4   4  249.78   23.31
  -3   4   4  181.41   12.30
  -3  -4   3 1581.42   63.23
  -3   4   3 1665.19   65.52
  -3   4   3 1521.64   55.42
  -3  -4   2  866.32   42.62
  -3   4   2  870.26   41.45
  -3  -4   1   22.44    7.31
  -3   4   1   21.81    6.69
  -3  -4   0  675.19   35.50
  -3   4   0  690.26   35.67
  -3   4   0  575.27   32.79
  -3  -4  -1   24.34    6.88
  -3   4  -1   23.18    7.10
  -3   4  -1   11.83    5.43
  -3   4  -2  920.86   44.53
  -3  -4  -2  933.50   44.98
  -3   4  -3 1591.02   64.35
  -3  -4  -3 1692.29   66.41
  -3   4  -4  219.15   20.86
  -3  -4  -4  232.93   22.77
   3  -4   5  966.58   58.21
   3   4   5  803.11   49.82
  -3  -4  -5  833.59   48.33
  -3   4  -5  863.64   48.28
   3  -4   6  677.76   52.44
   3   4   6  592.13   45.95
  -3   4  -6  545.10   42.24
  -3  -4  -6  539.96   43.35
   3   4   7  111.49   20.52
  -3  -4  -7  101.34   22.01
   3  -4   7  120.85   23.43
  -3   4  -7   84.04   19.03
   3  -4   8  191.77   32.22
   3   4   8  174.61   29.03
  -3  -4  -8  152.37   29.82
   3  -4   9  131.81   28.24
   3   4   9  111.39   24.75
   3  -4  10   52.50   18.97
  -3   4 -10   71.74   20.91
  -3  -4 -10   62.87   20.72
   3   4  10   46.88   17.06
   3  -4  11  468.27   58.33
   3   4  11  402.35   51.72
  -3   4 -11  296.03   43.03
  -3  -4 -11  377.54   51.55
   3  -4  12  -21.15   18.90
   3   4  12   13.46   11.33
  -3  -4 -12   15.64   12.33
  -3   4 -12   11.98   12.94
  -3   4 -12   11.12    8.94
   3  -4  13    8.01   14.33
   3   4  13   26.31   15.79
  -3  -4 -13   10.17   11.88
  -3   4 -13    3.75    7.44
  -3   4 -13    4.52    5.55
  -3   4 -13    2.85    6.13
   3  -4  14    2.54   11.47
   3   4  14    6.08    6.00
  -3   4 -14   13.88    8.51
  -3  -4 -14   23.80   13.33
  -3   4 -14    7.18    7.86
  -3   4 -14   18.54    9.42
   3  -4  15   25.14   13.92
  -3  -4 -15    8.17    8.97
  -3   4 -15   11.09    8.54
   3   4  15    9.25    6.48
  -3   4 -15   15.98   10.55
  -3   4 -15    5.56    6.89
   3  -4  16   -3.93   10.66
   3   4  16    3.26    3.19
  -3  -4 -16   11.60   10.51
  -3   4 -16    8.60    7.34
  -3   4 -16    5.94    5.89
  -3   4 -16    7.95    6.00
  -3   4 -17   23.45   11.44
  -3   4 -17   43.75   11.74
   3  -4  18    4.38    4.45
   3   4  18    4.97    3.29
  -3   4 -18    9.83    5.26
  -3   4 -18    5.58    5.22
   3  -4  19   34.22    9.00
   3   4  19   10.11    5.91
  -3   4 -19   22.11    7.39
  -3   4 -19   21.45    8.16
   3  -4  20   -0.68    2.61
   3   4  20    1.39    2.83
  -3   4 -20   -0.80    3.60
   3  -4  21    5.67    3.14
   3   4  21   -2.18    3.50
  -3   4 -21    2.50    3.24
   3  -4  22    0.74    1.36
   3   4  22    0.39    1.67
  -3   4 -22    2.70    2.00
   3   5 -22    3.18    2.02
   3   5 -21   -1.60    2.54
   3   5 -20    1.50    4.16
   3   5 -19    4.41    5.59
   3   5 -19    3.91    4.84
   3   5 -18   28.67   10.04
   3   5 -17    4.73    5.70
   3  -5 -17   -1.08    4.97
   3   5 -17   11.12    9.95
   3  -5 -16    1.19    3.18
   3   5 -16   13.36    9.72
   3   5 -16   12.30    6.03
   3  -5 -15   19.35    9.54
   3   5 -15   13.26    5.44
   3  -5 -15   29.94   12.14
   3   5 -15   23.52    8.45
   3  -5 -14   35.66   13.06
   3   5 -14   62.41   18.17
   3  -5 -14   70.71   16.25
   3   5 -14   89.89   20.05
   3   5 -13   18.97   10.92
   3  -5 -13    2.89    7.23
   3   5 -13    7.42    4.76
   3   5 -13    8.35    6.11
   3  -5 -13   19.53    8.34
   3  -5 -12   13.69    8.78
   3   5 -12   25.90   13.18
   3   5 -12    6.20    6.01
   3  -5 -12    6.48    7.80
   3   5 -12   22.27    6.59
   3   5 -11   62.12   15.19
   3  -5 -11   55.57   14.61
   3  -5 -10  148.41   23.92
   3   5 -10  137.58   22.45
   3   5 -10   84.86   17.81
   3   5  -9   38.65   10.53
   3   5  -9   25.17    9.87
   3   5  -8  243.13   26.71
   3  -5  -8  196.76   24.38
   3   5  -8  184.58   28.21
   3   5  -7   71.21   14.13
   3  -5  -7   56.81   12.28
   3   5  -7   54.33   15.60
  -3   5   6  156.64   20.16
   3  -5  -6  168.69   20.50
   3   5  -6  190.45   21.66
   3  -5  -6  153.60   21.09
   3   5  -6  228.24   28.60
   3   5  -6  190.41   26.84
  -3  -5   5   39.60   10.44
   3   5  -5   35.38   10.49
  -3   5   5   35.23    9.60
   3  -5  -5   35.37    9.45
  -3   5   4  823.09   42.47
  -3  -5   4  637.43   39.26
   3   5  -4  760.89   43.40
   3  -5  -4  634.52   38.09
  -3   5   4  566.98   27.18
   3  -5  -3   19.00    5.63
  -3   5   3   14.83    6.60
   3   5  -3    9.92    4.26
  -3  -5   3   20.66    8.24
  -3   5   3   18.10    5.24
  -3  -5   2    1.10    3.18
  -3   5   2    3.73    2.84
  -3   5   2    2.99    3.21
  -3  -5   1   19.49    5.50
  -3   5   1   27.19    6.63
  -3   5   1   22.67    7.31
  -3   5   0  441.71   27.47
  -3  -5   0  402.69   26.10
  -3   5   0  417.07   28.50
  -3  -5  -1   30.73    7.21
  -3   5  -1   27.47    6.20
  -3   5  -1   19.61    6.87
  -3  -5  -2    2.87    2.66
  -3   5  -2    4.31    3.33
  -3  -5  -3   16.48    6.61
  -3   5  -3   17.71    5.97
  -3   5  -4  685.21   38.66
  -3  -5  -4  696.10   40.23
  -3  -5  -5   26.79    8.17
  -3   5  -5   38.98    8.74
   3   5   6  153.26   20.66
   3  -5   6  165.97   23.68
  -3  -5  -6  177.74   25.61
  -3   5  -6  161.78   22.58
   3  -5   7   84.57   19.29
  -3  -5  -7   61.39   17.07
  -3   5  -7   61.90   16.23
   3   5   7   56.28   13.70
   3  -5   8  231.90   33.21
   3   5   8  208.09   28.93
   3  -5   9   44.82   15.75
  -3   5  -9   53.43   21.49
  -3  -5  -9   28.44   11.82
   3   5   9   66.12   16.98
   3  -5  10  113.76   25.75
   3   5  10  113.67   23.68
  -3   5 -10   99.05   24.00
  -3  -5 -10  137.85   30.85
   3  -5  11   71.05   23.06
   3   5  11   56.25   16.49
  -3  -5 -11   34.03   14.63
  -3   5 -11   52.55   18.74
   3  -5  12   22.87   13.93
   3   5  12    7.58    7.21
  -3   5 -12   16.09    7.80
  -3  -5 -12    1.97    7.48
  -3   5 -12    1.43    7.08
  -3   5 -12   13.01    9.25
   3   5  13   20.43   11.57
  -3   5 -13    8.38    5.07
  -3  -5 -13    5.39    8.26
   3  -5  13   22.90    9.46
  -3   5 -13   15.57   11.19
  -3   5 -13   14.66    8.40
   3  -5  14   51.38   19.44
   3   5  14   69.20   19.45
  -3  -5 -14   50.44   15.20
  -3   5 -14   57.45   17.23
  -3   5 -14   78.65   18.86
  -3   5 -14   50.98   15.51
   3   5  15   27.20   11.50
   3  -5  15   22.47   12.64
  -3   5 -15   19.92   10.16
  -3  -5 -15    1.46    7.46
  -3   5 -15   14.02    8.32
  -3   5 -15   17.19    6.64
  -3   5 -16   -1.17    4.73
  -3   5 -16    7.61    4.51
   3   5  17    7.26    6.08
   3  -5  17    1.23    3.72
  -3   5 -17   -7.26    7.45
  -3   5 -17   -1.19    4.41
   3   5  18   17.86    7.38
   3  -5  18   10.06    5.71
  -3   5 -18   22.16    8.28
  -3   5 -18   24.93    8.26
   3  -5  19    2.40    4.30
   3   5  19    3.01    2.97
  -3   5 -19    5.11    3.17
  -3   5 -19   -5.69    4.70
   3  -5  20    3.11    4.72
   3   5  20    3.08    3.81
  -3   5 -20   -0.57    2.66
  -3   5 -20    0.79    2.49
   3   5  21    1.90    1.36
   3  -5  21    0.47    1.84
  -3   5 -21   -1.25    4.17
   3  -5  22    5.79    2.25
   3   5  22    8.57    2.81
  -3   5 -22    5.79    2.77
   3   6 -21   10.19    4.90
   3   6 -21   10.70    4.56
   3   6 -20    5.11    4.60
   3   6 -20    2.74    3.53
   3   6 -19    4.55    4.32
   3   6 -19   -0.94    5.56
   3   6 -18   45.92   12.65
   3   6 -18   24.16    9.72
   3   6 -17    5.28    4.76
   3   6 -17   10.41    6.16
   3  -6 -16   -3.25    4.52
   3   6 -16    6.17    4.66
   3   6 -16   10.07    9.55
   3  -6 -15   82.61   17.78
   3   6 -15   85.94   19.35
   3   6 -15  112.89   18.42
   3  -6 -15   58.50   14.81
   3   6 -15  120.62   19.57
   3  -6 -14   69.13   16.91
   3   6 -14   61.98   17.62
   3   6 -14   66.38   15.23
   3  -6 -14   88.25   17.71
   3   6 -14   72.85   15.53
   3   6 -13   33.12   13.46
   3  -6 -13   66.08   17.13
   3   6 -13   26.85    9.89
   3   6 -13   54.26   14.16
   3  -6 -13   53.42   14.79
   3   6 -12   -1.68    7.72
   3  -6 -12   45.59   13.61
   3   6 -12   19.36    8.66
   3   6 -12   26.97   11.18
   3  -6 -12   26.54   10.11
   3   6 -12   37.68   12.39
   3   6 -11   25.61    9.11
   3  -6 -11   29.11    9.23
   3   6 -11   42.21   12.36
   3   6 -10  232.16   26.94
   3  -6 -10  183.86   24.07
   3   6 -10  164.45   25.61
   3   6  -9   10.73    6.74
   3  -6  -9   19.36    8.11
   3   6  -9   21.34    9.94
   3   6  -8   31.42    8.87
   3  -6  -8   30.67    9.34
   3   6  -8   40.34   15.72
  -3  -6   7  805.47   47.60
  -3   6   7  960.07   50.42
   3  -6  -7  910.21   50.24
   3   6  -7  981.59   51.81
   3   6  -7  897.47   69.62
  -3   6   6  620.06   38.36
  -3  -6   6  549.89   37.25
   3   6  -6  529.55   51.85
   3   6  -5   13.19    8.41
  -3  -6   5    7.09    4.10
   3  -6  -5    0.84    5.28
  -3   6   5    1.92    3.72
   3   6  -5   -4.34    6.31
   3  -6  -4   58.27   11.16
  -3  -6   4   52.54   10.03
   3   6  -4   64.73   12.51
  -3   6   4   57.43   10.21
  -3   6   4   39.58    7.11
  -3  -6   3    1.63    2.77
  -3   6   3    2.66    2.20
   3  -6  -3    0.57    2.83
   3   6  -3    1.96    3.36
  -3   6   3    7.11    5.25
  -3   6   3    7.10    3.85
  -3  -6   2  456.93   27.84
  -3   6   2  441.22   26.76
  -3   6   2  416.45   30.37
  -3   6   2  371.53   28.52
  -3   6   1 1174.93   46.26
  -3  -6   1 1178.99   47.50
  -3   6   1 1110.71   54.07
  -3   6   1 1092.87   52.40
  -3  -6   0  961.75   41.73
  -3   6   0  965.06   40.84
  -3   6   0  898.44   47.56
  -3   6   0  862.12   46.77
  -3   6  -1 1163.08   47.42
  -3  -6  -1 1144.40   47.93
  -3   6  -1 1154.92   54.21
  -3  -6  -2  452.94   27.90
  -3   6  -2  402.93   25.68
  -3  -6  -3    3.35    4.49
  -3   6  -3    6.76    4.50
  -3   6  -4   43.02    9.66
  -3  -6  -4   46.62   10.56
  -3   6  -5    6.36    4.65
  -3  -6  -5    3.43    4.31
  -3  -6  -6  448.01   40.96
  -3   6  -6  430.81   38.08
   3   6   7  834.72   50.25
   3  -6   7  794.94   53.13
  -3   6  -7  796.18   61.35
   3  -6   8   18.58    8.80
   3   6   8   27.73    8.76
  -3   6  -8   17.32    9.95
  -3  -6  -8    5.60    8.15
  -3   6  -8   36.49   12.26
  -3   6  -9   14.92    5.54
  -3  -6  -9   25.06   14.43
   3   6   9    8.18    7.43
   3  -6   9    8.62    8.00
   3   6  10  146.23   24.01
   3  -6  10  176.86   29.41
  -3  -6 -10  153.85   29.01
  -3   6 -10  134.43   25.64
   3   6  11   32.16   12.38
  -3   6 -11   40.12   14.79
  -3  -6 -11   56.26   17.79
   3  -6  11   34.10   14.44
  -3   6 -11   28.77   12.60
  -3   6 -11   28.98   10.15
   3  -6  12   28.66   10.72
  -3  -6 -12   19.50   10.90
   3   6  12   29.47   11.15
  -3   6 -12   15.25    8.31
  -3   6 -12   23.99   11.02
  -3   6 -12   34.76   12.57
   3   6  13   62.78   16.41
   3  -6  13   41.10   13.19
  -3   6 -13   78.87   18.77
  -3  -6 -13   58.14   16.13
  -3   6 -13   51.88   13.20
  -3   6 -13   50.48   14.83
   3   6  14   97.49   20.94
   3  -6  14   45.05   14.99
  -3  -6 -14   49.03   12.05
  -3   6 -14   69.37   17.20
  -3   6 -14   71.60   13.49
  -3   6 -14   70.73   16.31
  -3   6 -14   57.05   15.29
   3  -6  15  114.69   25.54
   3   6  15   89.40   19.47
  -3   6 -15   65.25   15.16
  -3  -6 -15   68.24   15.91
   3  -6  15  102.67   22.30
   3   6  15   69.05   15.50
  -3   6 -15   91.67   15.65
  -3   6 -15  114.42   20.26
  -3   6 -15  110.64   21.77
   3  -6  16    6.64    3.93
   3   6  16   -1.02    2.87
  -3   6 -16   -4.49    5.94
  -3   6 -16    1.21    4.57
   3   6  17   -3.56    4.59
   3  -6  17    5.58    6.98
  -3   6 -17    1.01    4.11
  -3   6 -17    1.14    5.33
   3  -6  18   29.98   10.22
   3   6  18   16.75    7.48
  -3   6 -18   26.24    8.91
  -3   6 -18   21.89    8.58
   3   6  19    4.45    4.54
   3  -6  19   -1.45    2.31
  -3   6 -19    5.01    3.59
  -3   6 -19    0.91    4.75
   3  -6  20   -0.56    1.98
   3   6  20   -0.51    3.89
  -3   6 -20   -2.22    2.72
  -3   6 -20    3.84    2.36
   3   6  21    7.61    3.49
   3  -6  21    9.39    3.50
  -3   6 -21   11.67    3.80
  -3   6 -21   14.48    5.55
   3   7 -21   15.48    4.64
   3   7 -21   14.35    4.54
   3   7 -20    4.78    3.46
   3   7 -20   10.09    4.14
   3   7 -19    6.37    6.79
   3   7 -19    7.69    4.48
   3   7 -18    4.72    3.72
   3   7 -18    6.02    6.84
   3   7 -17   92.49   17.93
   3   7 -17   88.05   18.45
   3   7 -16   39.04   11.86
   3   7 -15   42.75   11.68
   3   7 -15   36.06   10.88
  -3   7  14  117.02   17.92
   3   7 -14   93.66   20.05
   3   7 -14   89.13   16.15
   3   7 -14   95.00   17.54
   3   7 -14  138.81   24.93
   3   7 -13  230.88   31.40
   3   7 -13  223.89   28.67
   3   7 -13  221.99   26.86
   3   7 -13  243.62   26.59
   3   7 -12    9.96    8.95
   3   7 -12   12.20    5.79
   3   7 -12    2.74    4.65
   3   7 -12   20.51    7.78
   3   7 -11   59.06   13.32
   3   7 -11   75.75   18.40
   3   7 -11   82.62   15.37
   3  -7 -11   88.05   16.34
   3   7 -10   11.58    6.55
   3   7 -10   17.35    8.40
   3   7 -10   37.86   13.45
   3   7 -10   28.83    9.44
   3  -7 -10   32.61   10.14
  -3   7  10   22.89    7.15
  -3  -7   9  473.52   35.49
   3   7  -9  636.62   41.26
  -3   7   9  537.02   35.99
   3  -7  -9  635.33   42.42
   3   7  -9  514.78   51.75
  -3   7   8  203.88   21.44
  -3  -7   8  208.55   21.85
   3   7  -8  184.25   31.57
  -3  -7   7  153.58   18.58
  -3   7   7  191.39   19.96
   3   7  -7  179.87   30.06
  -3   7   6  355.49   26.28
  -3  -7   6  290.94   24.79
   3   7  -6  312.08   38.85
  -3  -7   5 1486.39   63.13
  -3   7   5 1785.66   65.48
   3   7  -5 1710.15   93.97
  -3   7   5 1634.21   71.09
   3  -7  -4   74.88   13.18
  -3  -7   4   78.09   11.09
  -3   7   4  127.29   14.09
   3   7  -4  106.36   16.79
  -3   7   4  103.97   15.43
   3  -7  -3  468.18   29.82
  -3  -7   3  514.28   29.14
  -3   7   3  579.18   30.10
  -3   7   3  525.45   36.32
  -3   7   3  494.97   31.99
   3  -7  -2   47.44    8.32
  -3  -7   2   36.10    7.26
  -3   7   2   43.71    7.53
   3   7  -2   38.31    7.55
  -3   7   2   33.71    8.98
  -3   7   2   33.64    8.03
  -3  -7   1 1536.29   55.07
  -3   7   1 1584.02   53.85
  -3   7   1 1564.22   67.71
  -3   7   1 1661.18   71.24
  -3   7   0 2051.19   64.73
  -3  -7   0 1971.13   64.73
  -3   7   0 1969.27   79.38
  -3   7   0 1875.79   78.22
  -3  -7  -1 1619.32   55.61
  -3   7  -1 1486.13   52.76
  -3   7  -1 1492.05   67.15
  -3  -7  -2   44.90    7.90
  -3   7  -2   32.78    6.87
  -3   7  -2   33.33   10.68
  -3  -7  -3  521.44   31.24
  -3   7  -3  476.94   29.09
  -3   7  -3  476.66   47.29
  -3   7  -4   83.09   13.57
  -3  -7  -4   91.83   14.42
  -3   7  -4   86.61   20.92
  -3  -7  -5 1326.26   68.74
  -3   7  -5 1365.81   65.11
  -3   7  -5 1231.67   82.14
  -3   7  -6  335.30   39.07
  -3   7  -7   89.91   18.35
  -3  -7  -7  118.74   23.21
  -3  -7  -8  195.66   29.77
   3   7   8  199.54   22.34
  -3   7  -8  161.35   26.23
   3  -7   8  200.70   25.33
  -3   7  -8  224.80   30.54
  -3  -7  -9  507.31   48.13
  -3   7  -9  412.55   41.47
   3   7   9  458.07   35.80
   3  -7   9  464.01   41.05
  -3   7  -9  567.80   45.31
   3  -7  10   25.09    9.53
  -3   7 -10   33.60   10.97
  -3  -7 -10   29.40   11.75
   3   7  10   21.70    8.12
  -3   7 -10   14.50    6.64
   3  -7  11   80.46   18.03
   3   7  11   63.24   14.33
  -3  -7 -11   66.14   15.96
  -3   7 -11   59.80   16.07
  -3   7 -11   80.70   17.04
   3   7  12   17.47    8.64
  -3   7 -12   18.65    9.34
  -3   7 -12   13.08    6.85
   3   7  12    4.95    5.60
  -3   7 -12   11.31    7.23
   3   7  13  181.91   24.54
  -3   7 -13  223.42   25.98
   3   7  13  190.92   25.66
  -3   7 -13  210.98   27.36
  -3   7 -13  233.03   29.45
  -3   7 -13  201.32   27.79
  -3   7 -14   74.32   15.80
   3   7  14   85.92   17.07
   3   7  14   77.74   15.66
  -3   7 -14   91.07   16.13
  -3   7 -14   98.94   18.50
  -3   7 -14   82.05   17.79
   3  -7  15   56.88   16.10
   3   7  15   40.93   11.55
  -3   7 -15   50.84   14.13
  -3   7 -15   54.66   14.91
   3  -7  16   16.09    7.58
   3   7  16   13.98    6.41
  -3   7 -16   -3.22    7.59
  -3   7 -16   11.52    7.19
   3   7  17   57.54   11.55
   3  -7  17   60.20   13.75
  -3   7 -17   84.01   15.52
  -3   7 -17   72.47   16.12
   3   7  18    4.87    4.05
   3  -7  18   15.27    6.52
  -3   7 -18    0.84    4.66
  -3   7 -18   13.83    7.62
   3  -7  19    8.90    4.58
   3   7  19    0.50    2.52
  -3   7 -19    8.33    4.85
  -3   7 -19    6.96    4.64
   3   7  20   -4.18    3.36
  -3   7 -20   -0.53    2.82
  -3   7 -20    4.36    3.56
   3   7  21   11.33    2.85
  -3   7 -21    8.49    3.18
  -3   7 -21   15.58    3.78
   3   8 -21    4.21    1.97
   3   8 -21    7.74    2.85
   3   8 -20   19.06    5.54
   3   8 -20   23.06    5.75
   3   8 -19   10.71    4.33
   3   8 -19    5.45    4.03
   3   8 -18   21.74    8.22
   3   8 -17   24.75    8.44
   3   8 -16  137.54   20.67
   3   8 -15    9.83    5.81
   3   8 -15   22.58    8.64
   3   8 -15   21.94   10.70
   3   8 -14  109.02   19.04
   3   8 -14  127.77   20.53
   3   8 -14  137.26   23.88
  -3   8  13   21.50    7.77
   3   8 -13   20.78    6.81
   3   8 -13   10.93    7.24
   3   8 -13   30.25   11.07
   3   8 -12  251.75   33.33
   3   8 -12  280.69   31.74
   3   8 -12  289.24   32.86
  -3   8  11  149.03   21.90
   3   8 -11  120.14   19.86
   3   8 -11  153.40   27.20
   3   8 -11  150.36   23.92
   3   8 -10  154.26   26.15
   3   8 -10  116.71   18.31
   3   8 -10  122.95   20.42
   3   8 -10  132.43   26.24
   3   8  -9    1.67    9.94
   3   8  -9   10.21    7.20
   3   8  -9    3.73    3.57
   3   8  -9   25.77   12.40
  -3   8   8  940.59   53.26
   3   8  -8  859.79   68.89
  -3   8   7  130.98   18.81
   3   8  -7  112.47   24.28
  -3   8   6  253.90   25.73
   3   8  -6  279.20   37.77
  -3   8   6  216.59   29.77
  -3   8   5   30.46    7.80
  -3   8   5   23.72    9.22
  -3   8   4 2762.38   99.38
  -3   8   4 2483.87  120.37
  -3   8   3  518.05   33.86
  -3   8   3  524.84   36.35
  -3   8   3  472.19   47.37
  -3   8   2  201.87   22.39
  -3   8   2  205.44   22.89
  -3   8   2  185.93   30.05
  -3   8   1  137.43   19.03
  -3   8   1  135.55   18.40
  -3   8   1  128.31   24.42
  -3   8   0 3299.29  112.46
  -3   8   0 2573.62  124.21
  -3   8  -1  123.60   17.72
  -3   8  -2  172.05   21.34
  -3   8  -2  165.12   27.93
  -3   8  -3  498.48   37.05
  -3   8  -3  396.12   44.59
  -3   8  -4 2400.87   94.80
  -3   8  -4 2160.61  112.43
  -3   8  -5   30.31    9.45
  -3   8  -5   37.32   15.99
  -3   8  -6  232.73   26.11
  -3   8  -6  186.31   28.75
  -3   8  -7   82.38   15.91
  -3   8  -7  106.63   20.81
  -3   8  -7  112.25   18.31
  -3   8  -8  668.07   48.16
  -3   8  -8  939.91   61.54
  -3   8  -9    5.94    4.57
  -3   8  -9   -4.57    6.36
  -3   8  -9    5.61    4.45
  -3   8 -10  137.95   20.25
  -3   8 -10  150.75   22.90
  -3   8 -10  148.99   23.40
  -3   8 -10  176.07   25.56
  -3   8 -10  169.07   23.08
  -3   8 -11  120.88   19.03
  -3   8 -11  135.40   21.45
  -3   8 -11   80.98   17.12
  -3   8 -12  311.02   31.13
  -3   8 -12  290.63   32.73
  -3   8 -12  285.20   32.22
  -3   8 -13   11.89    5.08
  -3   8 -13    4.72    6.74
  -3   8 -14   87.59   17.60
  -3   8 -15    7.68    6.65
   3   8  16   72.65   12.23
  -3   8 -16  107.56   18.35
  -3   8 -16  108.99   19.06
   3   8  17    7.09    2.92
  -3   8 -17   17.21    8.43
  -3   8 -18   19.05    6.07
  -3   8 -18   23.94    8.75
   3   8  19    1.38    2.38
  -3   8 -19    9.82    4.39
  -3   8 -19   13.72    7.41
  -3   8 -20   26.61    6.76
  -3   8 -20   32.07    8.11
  -3   8 -21    2.88    2.70
  -3   8 -21    8.50    3.39
   3   9 -20    3.36    1.94
   3   9 -19    8.70    3.53
   3   9 -18   23.80    6.41
   3   9 -17   19.12    6.23
   3   9 -17   14.57    6.07
   3   9 -16    5.55    4.00
   3   9 -16    0.96    3.95
   3   9 -15   38.56   10.89
   3   9 -15   53.13   11.72
   3   9 -15   66.70   14.38
   3   9 -14   17.37    7.41
   3   9 -14   15.56    9.38
   3   9 -14    7.43    5.23
  -3   9  13   77.04   13.86
   3   9 -13   49.09   12.64
   3   9 -13   75.77   17.20
   3   9 -13   70.45   14.99
   3   9 -13   61.08   13.44
  -3   9  12   95.37   16.07
   3   9 -12   65.52   17.46
   3   9 -12   81.59   16.03
   3   9 -12   94.33   16.73
   3   9 -12   99.64   18.97
  -3   9  11  221.75   25.04
   3   9 -11  167.94   29.26
   3   9 -11  153.86   22.36
   3   9 -11  203.44   24.62
   3   9 -11  185.88   24.72
  -3   9  10  195.05   23.87
   3   9 -10  174.18   29.77
   3   9 -10  126.10   20.75
   3   9 -10  157.17   22.08
   3   9 -10  141.89   20.61
   3   9 -10  159.03   23.35
   3   9  -9  130.53   21.59
   3   9  -9  177.32   23.24
   3   9  -9  202.90   33.55
   3   9  -9  165.81   23.85
   3   9  -9  217.55   27.44
  -3   9   8    2.68    3.08
   3   9  -8   10.65   10.62
   3   9  -8    9.84    9.87
   3   9  -8    1.16    7.43
   3   9  -8   -0.94    3.64
  -3   9   7  370.93   31.73
  -3   9   6   30.32    8.49
  -3   9   6   15.13    8.74
  -3   9   5  579.30   39.53
  -3   9   5  518.72   48.61
  -3   9   4  410.25   33.65
  -3   9   4  371.98   42.72
  -3   9   3  589.69   38.49
  -3   9   3  639.75   42.93
  -3   9   3  586.27   53.98
  -3   9   2  287.63   27.73
  -3   9   2  288.06   27.79
  -3   9   2  210.56   31.77
  -3   9   1  937.18   53.51
  -3   9   1  774.60   62.57
  -3   9   0   86.00   15.39
  -3   9   0   77.81   19.01
  -3   9  -1  915.78   52.77
  -3   9  -2  266.51   27.43
  -3   9  -3  632.47   43.56
  -3   9  -3  587.88   52.88
  -3   9  -4  363.66   32.35
  -3   9  -4  375.39   41.40
  -3   9  -5  520.57   39.79
  -3   9  -5  484.15   47.36
  -3   9  -6   35.86    9.30
  -3   9  -6   29.12    9.24
  -3   9  -7  354.17   33.24
  -3   9  -7  363.40   38.25
  -3   9  -8    2.54    7.04
  -3   9  -8    8.15    5.18
  -3   9  -8    5.53    6.21
  -3   9  -9  182.28   25.15
  -3   9  -9  244.22   29.97
  -3   9  -9  194.22   25.70
  -3   9 -10  182.63   23.49
  -3   9 -10  164.74   23.63
  -3   9 -10  203.27   26.12
  -3   9 -10  143.67   22.20
  -3   9 -10  207.49   26.17
  -3   9 -11  181.47   23.27
  -3   9 -11  199.68   26.42
  -3   9 -11  172.52   22.41
  -3   9 -11  202.77   23.92
  -3   9 -11  160.58   23.92
  -3   9 -12   83.54   15.58
  -3   9 -12   94.59   18.73
  -3   9 -12   96.58   18.58
  -3   9 -13   74.43   14.18
  -3   9 -13   51.30   13.25
  -3   9 -13   75.46   16.52
  -3   9 -14   35.59   12.42
  -3   9 -14    3.29    4.15
  -3   9 -15   57.50   13.91
  -3   9 -16    1.90    5.70
  -3   9 -17   17.04    7.65
   3   9  18   10.29    4.78
  -3   9 -18   30.20    8.58
   3   9  19    1.59    1.62
  -3   9 -19   15.08    5.57
  -3   9 -20    1.66    2.93
  -3   9 -20   -5.02    4.14
   3  10 -19    8.03    3.58
   3  10 -19    3.91    1.91
   3  10 -18    3.25    3.02
   3  10 -18    3.43    1.38
   3  10 -17   13.90    6.32
   3  10 -17   13.21    4.66
   3  10 -16   14.24    4.88
   3  10 -16    1.55    2.89
   3  10 -15   21.70    7.98
   3  10 -15   11.11    5.09
   3  10 -14    4.89    4.41
   3  10 -14   -6.64    4.39
   3  10 -14    4.54    3.31
   3  10 -13    9.30    6.74
   3  10 -13   -2.02    4.17
   3  10 -13    8.01    4.99
   3  10 -12   18.13    6.78
   3  10 -12   29.88   12.44
   3  10 -12   20.98    8.68
   3  10 -12   16.62    6.19
  -3  10  11  157.03   19.95
   3  10 -11  117.68   19.82
   3  10 -11  163.40   26.95
   3  10 -11  154.76   22.29
  -3  10  10   21.43    7.52
   3  10 -10   11.27    6.48
   3  10 -10   43.41   17.05
   3  10 -10   18.24    8.85
   3  10 -10   12.63    7.28
   3  10 -10   16.39    8.36
   3  10  -9   16.57    8.20
   3  10  -9   31.81   16.33
   3  10  -9   12.39    5.56
   3  10  -9   -3.40    7.08
   3  10  -9   12.09    7.57
   3  10  -8   27.62    9.73
   3  10  -8   17.49    6.55
   3  10  -8   17.36    8.43
   3  10  -8   15.79    8.83
  -3  10   7   16.32    7.44
   3  10  -7   11.31    5.71
   3  10  -7    1.31    5.21
  -3  10   6  149.21   20.53
   3  10  -6  124.03   20.92
   3  10  -6  129.72   18.70
   3  10  -6  170.58   30.79
   3  10  -6  135.19   24.80
  -3  10   6  162.17   24.80
  -3  10   5   94.86   15.97
  -3  10   5  127.34   23.06
  -3  10   4    5.72    4.69
  -3  10   4    1.82    3.24
  -3  10   3  208.82   24.10
  -3  10   3  192.24   29.33
  -3  10   2  267.39   28.15
  -3  10   2  279.83   35.57
  -3  10   1   -1.52    7.28
  -3  10   1   -2.97    4.04
  -3  10   0   25.20    8.15
  -3  10   0   35.67   14.28
  -3  10  -1    2.90    4.80
  -3  10  -1    5.69    4.50
  -3  10  -2  248.99   27.25
  -3  10  -3  175.60   22.56
  -3  10  -3  196.12   29.14
  -3  10  -4   -4.98    5.54
  -3  10  -4   -4.30    7.84
  -3  10  -5   90.40   16.61
  -3  10  -5   91.53   20.56
   3  10   5   85.82   16.57
  -3  10  -6  131.61   20.73
   3  10   6  137.13   20.64
  -3  10  -6  112.49   18.62
  -3  10  -6  162.90   25.91
  -3  10  -7   15.51    4.99
  -3  10  -7   20.99    7.44
  -3  10  -7   15.97    7.82
  -3  10  -7    9.85    5.81
  -3  10  -7   10.38    6.08
  -3  10  -8    8.53    3.65
  -3  10  -8   11.46    7.30
  -3  10  -8    7.81    4.83
  -3  10  -8   24.58    9.84
  -3  10  -8    7.81    4.96
  -3  10  -9   11.25    5.95
  -3  10  -9   16.10    8.37
  -3  10  -9   12.37    7.40
  -3  10  -9   18.42    7.95
  -3  10 -10   13.24    6.97
  -3  10 -10    9.52    4.10
  -3  10 -10   18.68    8.76
  -3  10 -11  143.94   20.11
  -3  10 -11  140.03   22.39
  -3  10 -11  163.97   21.09
  -3  10 -11  130.78   19.42
  -3  10 -12    9.73    5.64
  -3  10 -12   35.02   11.19
  -3  10 -12   27.94    7.92
  -3  10 -13    1.05    4.33
  -3  10 -13    2.17    4.51
  -3  10 -14    1.00    4.75
  -3  10 -14   -2.07    4.95
  -3  10 -15    9.43    4.37
  -3  10 -15   14.63    7.44
  -3  10 -16    4.54    3.83
  -3  10 -16    7.80    4.06
   3  10  17   11.08    4.01
  -3  10 -17    0.77    3.18
  -3  10 -17   16.40    6.03
   3  10  18    3.18    1.95
  -3  10 -18    5.33    4.84
  -3  10 -18    3.53    3.65
   3  10  19    2.32    1.22
  -3  10 -19    9.72    4.79
   3  11 -19    2.20    1.96
   3  11 -19    2.41    1.39
   3  11 -18    8.29    3.60
   3  11 -18    6.18    2.67
   3  11 -17    2.57    2.49
   3  11 -17   -1.14    1.55
   3  11 -16    7.94    4.49
   3  11 -16   -2.76    3.02
   3  11 -15   -2.09    2.73
   3  11 -15    0.53    3.04
  -3  11  14   37.55    8.83
   3  11 -14   34.38   10.32
   3  11 -14   25.58    7.64
   3  11 -14   25.60    6.72
   3  11 -13    5.43    4.25
  -3  11  13    2.79    3.77
   3  11 -13   10.94    5.85
   3  11 -12   -0.96    3.74
  -3  11  12    5.98    4.79
   3  11 -12    1.28    6.84
   3  11 -12    9.90    6.23
   3  11 -11    8.41    5.25
   3  11 -11   13.17   10.29
   3  11 -11    7.21    4.59
   3  11 -11   12.28    7.23
  -3  11  10   43.85   11.59
   3  11 -10   21.18    9.25
   3  11 -10   29.93    9.59
   3  11 -10   22.67    8.74
   3  11 -10   32.50   10.05
   3  11 -10   15.61    7.37
   3  11  -9   36.35   11.49
   3  11  -9   36.83   13.20
   3  11  -9   45.48   10.94
   3  11  -9   52.10   12.55
   3  11  -8  117.08   18.31
   3  11  -8   96.30   18.54
   3  11  -8  109.07   17.60
  -3  11   7   17.55    7.46
   3  11  -7   16.54    7.72
   3  11  -7    9.26    4.03
   3  11  -7   27.34   13.91
   3  11  -7   13.08    5.37
  -3  11   6   34.03    8.91
  -3  11   6   42.91   12.64
   3  11  -6   38.37   12.18
   3  11  -6   28.43   11.85
   3  11  -6   40.54   10.57
   3  11  -6   39.96   12.93
  -3  11   5   20.38    8.56
  -3  11   5   10.87    7.36
   3  11  -5   20.30    6.23
   3  11  -5   18.26    7.63
   3  11  -5   17.02    5.64
   3  11  -5   10.94    8.96
  -3  11   4   80.04   16.77
   3  11  -4   55.96   15.03
   3  11  -4   48.94   14.70
   3  11  -4   52.54   12.50
   3  11  -4   53.14   17.94
  -3  11   3   34.10   13.72
   3  11  -3   11.77    6.97
   3  11  -3   14.52    6.97
   3  11  -3   14.69    8.27
   3  11  -3   22.54    8.39
  -3  11   2    8.41    6.58
  -3  11   2   10.32    4.78
   3  11  -2    7.01    5.99
  -3  11   2    8.58    6.53
   3  11  -2    1.81    4.20
   3  11  -2    4.81    3.56
   3  11  -2    9.77    9.41
  -3  11   1   18.38   12.67
  -3  11   1   21.00    7.62
   3  11  -1   12.85    6.74
   3  11  -1    8.36    5.27
  -3  11   1   -2.18    5.73
   3  11  -1   16.83    9.20
  -3  11   0   71.61   14.61
  -3  11   0   78.18   17.62
   3  11   0   56.06   12.28
   3  11   0   52.92   15.36
  -3  11  -1    7.93    4.56
  -3  11  -1   19.19   10.38
   3  11   1   17.58   10.30
  -3  11  -2    1.95    6.41
   3  11   2    2.28    5.87
  -3  11  -3   15.99    7.07
  -3  11  -3   22.59    7.32
   3  11   3   28.47    9.62
  -3  11  -4   47.81   13.39
  -3  11  -4   61.98   14.10
  -3  11  -4   57.54   12.26
   3  11   4   47.67   11.30
   3  11   4   55.23   15.35
  -3  11  -4   41.53   10.83
   3  11   4   25.88    7.90
  -3  11  -5   26.52    8.57
  -3  11  -5   18.54    8.82
  -3  11  -5   17.36    7.55
   3  11   5   18.14    7.65
   3  11   5   26.59   10.35
  -3  11  -5    5.19    3.00
  -3  11  -5   22.66    8.49
  -3  11  -5   27.96   12.64
  -3  11  -6   38.48   11.56
  -3  11  -6   44.67   14.42
   3  11   6   30.43    9.33
  -3  11  -6   32.02    8.88
  -3  11  -6   46.76   14.84
  -3  11  -6   32.69   10.39
  -3  11  -7    2.43    4.47
  -3  11  -7   19.84    8.93
   3  11   7    9.03    5.09
  -3  11  -7   10.94    7.46
  -3  11  -7    6.30    4.15
  -3  11  -8  112.64   19.92
  -3  11  -8   97.26   17.11
  -3  11  -8  132.94   20.92
   3  11   8  107.23   17.17
  -3  11  -8  103.10   18.22
  -3  11  -8   83.06   17.39
  -3  11  -9   62.92   13.38
   3  11   9   44.07   11.12
  -3  11  -9   35.51   11.19
  -3  11  -9   36.10   11.38
  -3  11  -9   35.55   11.83
  -3  11 -10   40.90   10.86
   3  11  10   26.25    9.18
  -3  11 -10   36.12    9.85
  -3  11 -10   37.16   10.59
  -3  11 -10   25.54   10.38
  -3  11 -11    1.74    4.03
  -3  11 -11    5.29    4.83
  -3  11 -11    2.28    3.26
  -3  11 -12    4.56    3.57
  -3  11 -12   13.06    6.20
  -3  11 -12   15.36    7.71
  -3  11 -13    1.04    3.34
   3  11  14   31.47    8.80
  -3  11 -14   24.64    8.09
   3  11  15    4.23    3.18
  -3  11 -15   11.04    6.51
  -3  11 -15    4.42    4.58
   3  11  16    4.15    3.20
  -3  11 -16    2.35    2.84
  -3  11 -16    9.30    4.99
   3  11  17    3.36    1.80
  -3  11 -17    0.68    2.39
  -3  11 -17   -2.74    4.14
   3  11  18    3.72    2.40
  -3  11 -18    5.80    4.88
  -3  11 -18   10.85    5.00
   3  11  19    2.65    1.38
  -3  11 -19    2.74    2.53
  -3  11 -19    7.50    3.46
   3  12 -18    8.13    2.73
   3  12 -17    1.55    2.02
   3  12 -16   -2.81    3.32
   3  12 -15   28.45    6.58
  -3  12  14   34.51    8.60
   3  12 -14   34.12    8.38
  -3  12  13   33.19    9.94
   3  12 -13   16.47    6.31
   3  12 -13   20.61    7.10
  -3  12  12    0.91    4.70
   3  12 -12    0.89    4.03
   3  12 -12    7.98    7.44
   3  12 -12    2.98    3.40
   3  12 -11    1.30    4.56
  -3  12  11    8.87    4.94
   3  12 -11   11.05    6.16
   3  12 -11   -0.84    3.83
   3  12 -10   12.99    5.71
  -3  12  10   10.47    4.16
   3  12 -10   20.25    9.61
   3  12 -10   12.55    3.85
   3  12 -10   12.25    5.45
   3  12  -9   11.96    5.80
  -3  12   9   13.09    4.65
   3  12  -9   11.75    8.47
   3  12  -9   14.70    6.25
   3  12  -8    0.88    3.11
   3  12  -8   11.21    7.41
  -3  12   8    4.43    5.06
   3  12  -8   12.81    8.33
  -3  12   7  205.33   27.33
   3  12  -7  273.64   36.74
   3  12  -7  263.39   26.53
   3  12  -7  244.64   30.30
   3  12  -7  204.68   28.20
  -3  12   6   50.72   12.96
  -3  12   6   47.30   12.75
   3  12  -6   35.35    9.98
   3  12  -6   53.16   17.34
   3  12  -6   54.74   14.69
   3  12  -6   36.35   11.57
  -3  12   5   -3.20    4.35
   3  12  -5    4.55    4.73
   3  12  -5    1.54    6.18
   3  12  -5    5.18    5.99
  -3  12   5    6.52    4.36
   3  12  -5   -7.68    7.37
  -3  12   4    4.62    4.53
   3  12  -4    5.06    4.74
   3  12  -4   14.70   10.22
  -3  12   4    6.44    6.50
   3  12  -4    3.65    3.54
  -3  12   3    9.79    8.43
   3  12  -3    7.30    3.96
   3  12  -3    3.66    4.61
   3  12  -3    2.47    6.38
   3  12  -3    4.24    6.23
  -3  12   3   -2.18    4.86
  -3  12   2    6.40    6.46
   3  12  -2    3.68    4.60
   3  12  -2    1.16    6.06
   3  12  -2    2.43    6.78
   3  12  -2   12.35    9.04
   3  12  -2   22.49   12.41
  -3  12   2   -1.15    8.57
  -3  12   1  195.63   25.19
   3  12  -1  186.55   26.45
   3  12  -1  173.81   22.10
   3  12  -1  183.34   24.26
   3  12  -1  173.92   26.09
  -3  12   1  150.32   22.27
   3  12  -1  157.89   26.77
  -3  12   1  154.57   23.79
  -3  12   1  171.66   26.18
  -3  12   0    2.60    4.45
  -3  12   0    6.38    4.86
   3  12   0   15.90   10.14
   3  12   0    6.30    4.21
  -3  12   0    3.20    5.72
   3  12   0   12.02    8.59
   3  12   0    8.40    4.73
   3  12   0    5.57    9.97
  -3  12   0    2.50    4.66
  -3  12   0   11.11    5.87
  -3  12  -1  153.06   21.64
   3  12   1  202.51   24.62
   3  12   1  205.49   27.57
  -3  12  -1  162.51   22.48
   3  12   1  165.90   21.26
   3  12   1  125.82   21.72
  -3  12  -1  116.79   18.23
  -3  12  -1  193.35   27.13
  -3  12  -1  194.85   27.58
  -3  12  -2    4.02    4.64
   3  12   2    6.51    4.42
   3  12   2    8.47    4.79
  -3  12  -2   12.79    7.21
   3  12   2    3.43    4.29
  -3  12  -2   -6.46    9.47
  -3  12  -2    7.28    4.40
  -3  12  -3   -1.00    6.67
   3  12   3    2.63    4.69
  -3  12  -3   -0.94    3.08
   3  12   3    0.88    3.57
   3  12   3    3.17    3.99
  -3  12  -3    0.84    3.30
  -3  12  -3   -2.52    4.49
  -3  12  -3    7.56    5.55
  -3  12  -4    8.59    5.94
  -3  12  -4   12.16    7.27
  -3  12  -4    4.43    4.62
   3  12   4    1.68    4.06
   3  12   4    3.90    5.84
  -3  12  -4   10.64    5.20
   3  12   4   10.99    6.57
  -3  12  -4    4.32    3.61
  -3  12  -5   13.42    5.29
  -3  12  -5    6.14    7.40
   3  12   5   -0.80    5.66
   3  12   5    8.28    6.20
  -3  12  -5    8.28    5.42
   3  12   5    8.81    5.36
   3  12   5   12.37    6.62
  -3  12  -5   21.05    9.02
  -3  12  -5   10.03    6.10
  -3  12  -6   48.66   13.90
  -3  12  -6   33.27   10.09
  -3  12  -6   48.06   10.69
   3  12   6   46.55   11.58
  -3  12  -6   20.81    8.49
  -3  12  -6   35.16   11.57
  -3  12  -6   38.36   10.85
  -3  12  -7  222.71   26.00
   3  12   7  257.01   26.58
  -3  12  -7  224.45   26.21
  -3  12  -7  203.00   26.24
  -3  12  -7  223.85   26.67
  -3  12  -7  278.56   31.07
  -3  12  -8    9.60    9.31
  -3  12  -8    7.08    3.75
   3  12   8    1.80    2.88
  -3  12  -8   10.86    4.81
  -3  12  -8   -2.15    4.31
  -3  12  -8    9.42    5.86
  -3  12  -9   26.80    9.60
  -3  12  -9   17.80    8.45
   3  12   9   11.48    6.15
  -3  12  -9    1.08    5.97
  -3  12  -9   22.42   10.02
  -3  12  -9   26.81    9.85
  -3  12 -10   18.13    8.10
   3  12  10   26.77    8.37
  -3  12 -10   11.55    5.11
  -3  12 -10   25.10    8.63
  -3  12 -10   20.24    9.84
  -3  12 -11   -4.06    3.50
   3  12  11    5.87    6.05
  -3  12 -11    5.03    3.80
  -3  12 -11   -4.02    5.80
  -3  12 -11    5.49    3.90
  -3  12 -12   -0.71    3.02
   3  12  12   -4.81    4.62
  -3  12 -12   -0.95    3.69
  -3  12 -12   -0.70    3.73
  -3  12 -12    1.04    4.47
   3  12  13   32.80    9.25
  -3  12 -13   20.33    5.41
  -3  12 -13   26.87    9.50
   3  12  14   34.76    8.09
  -3  12 -14   26.36    8.25
   3  12  15   29.45    7.79
  -3  12 -15   37.84    9.07
   3  12  16    4.33    3.95
  -3  12 -16   -2.56    4.17
  -3  12 -16   -4.01    4.54
   3  12  17   -1.55    1.89
  -3  12 -17   -0.57    3.41
  -3  12 -17    1.62    1.69
   3  12  18   11.58    3.40
  -3  12 -18   13.78    4.68
  -3  12 -18   10.90    3.24
   3  13 -17   12.22    3.30
   3  13 -16    6.53    2.87
   3  13 -15    9.51    3.97
   3  13 -14   34.05    6.74
  -3  13  13   77.61   12.72
   3  13 -13   49.79    9.10
   3  13 -12    0.96    3.41
  -3  13  12    2.39    5.46
   3  13 -12    1.19    3.04
   3  13 -11    1.10    5.40
  -3  13  11    6.20    5.35
   3  13 -11    3.83    3.69
  -3  13  10   -0.96    5.52
   3  13 -10    4.03    3.92
   3  13 -10   11.57    5.43
   3  13 -10    3.97    2.33
   3  13  -9  163.83   19.57
   3  13  -9  176.46   24.47
  -3  13   9  185.84   23.47
   3  13  -9  147.43   20.89
  -3  13   8  140.50   21.79
   3  13  -8  132.69   17.81
   3  13  -8  125.25   21.21
   3  13  -8  134.74   23.59
   3  13  -8  135.00   21.29
   3  13  -7   39.59   13.24
   3  13  -7   33.29   11.17
  -3  13   7   40.72   11.16
   3  13  -7    5.56    5.83
   3  13  -7   30.18   11.93
  -3  13   6   60.10   14.11
   3  13  -6   98.81   16.72
   3  13  -6  100.02   20.17
   3  13  -6   89.54   18.01
   3  13  -6   93.34   20.62
   3  13  -5  198.41   26.97
   3  13  -5  193.73   22.52
  -3  13   5  169.28   23.63
   3  13  -5  178.97   26.95
   3  13  -5  139.72   24.85
  -3  13   5  231.85   25.90
  -3  13   4    3.05    4.80
   3  13  -4    6.13    4.84
   3  13  -4   -1.80    3.79
  -3  13   4   -4.23    4.89
   3  13  -4   -1.32    4.83
  -3  13   4   -3.82    6.52
  -3  13   3   90.40   18.29
   3  13  -3  127.19   20.64
   3  13  -3   80.84   14.98
   3  13  -3   99.48   20.05
   3  13  -3   83.86   21.20
  -3  13   3   77.68   15.08
  -3  13   2   78.87   16.18
   3  13  -2   67.13   15.23
   3  13  -2   69.04   15.41
   3  13  -2   65.92   13.51
   3  13  -2   83.37   18.69
   3  13  -2   52.50   15.85
  -3  13   2   69.93   13.69
  -3  13   1  117.83   20.27
   3  13  -1  104.17   19.42
   3  13  -1  100.49   18.09
   3  13  -1  119.34   17.98
   3  13  -1  100.22   20.61
  -3  13   1  129.31   20.20
   3  13  -1  122.44   24.04
  -3  13   1  133.20   20.30
  -3  13   0  251.98   28.85
   3  13   0  223.72   25.83
   3  13   0  241.50   29.61
   3  13   0  235.70   26.07
  -3  13   0  227.28   26.98
   3  13   0  232.44   30.30
   3  13   0  235.88   30.75
  -3  13   0  235.74   28.57
  -3  13   0  250.76   29.63
  -3  13  -1  125.06   21.78
  -3  13  -1  120.00   19.63
   3  13   1   91.37   15.97
   3  13   1  136.92   22.75
  -3  13  -1   76.70   15.58
   3  13   1   76.66   14.16
  -3  13  -1  141.44   22.58
   3  13   1   93.24   18.30
  -3  13  -1   91.28   14.76
  -3  13  -2   59.03   13.37
   3  13   2   81.16   14.35
  -3  13  -2   87.41   16.24
   3  13   2   90.55   18.88
   3  13   2   74.58   14.55
   3  13   2   57.88   14.01
  -3  13  -2   61.79   14.67
  -3  13  -2   60.53   12.41
  -3  13  -3   65.77   14.65
   3  13   3   99.70   15.86
  -3  13  -3   73.10   14.66
   3  13   3  117.71   21.32
   3  13   3   67.29   14.28
  -3  13  -3  101.07   18.67
  -3  13  -3   74.10   13.88
  -3  13  -4   -1.02    3.34
  -3  13  -4    3.37    3.58
  -3  13  -4   -8.62    6.74
   3  13   4    2.36    2.81
   3  13   4   -2.50    8.28
   3  13   4    1.98    4.60
  -3  13  -4   -6.71    6.81
  -3  13  -4    2.71    3.35
  -3  13  -5  173.20   23.65
  -3  13  -5  162.46   20.49
   3  13   5  217.86   27.87
  -3  13  -5  160.72   20.03
  -3  13  -5  174.01   22.29
  -3  13  -5  184.45   25.19
  -3  13  -6   85.67   16.35
  -3  13  -6   84.97   16.00
   3  13   6   81.96   14.62
  -3  13  -6   88.35   14.52
  -3  13  -6  103.83   17.96
  -3  13  -6   90.93   16.60
  -3  13  -6   73.09   14.32
  -3  13  -7   38.28   10.79
  -3  13  -7   31.19    9.43
   3  13   7   35.14    9.93
  -3  13  -7   30.69   10.33
  -3  13  -7   34.72   10.51
  -3  13  -7   39.32   10.96
  -3  13  -8  154.39   21.29
   3  13   8  133.73   18.32
  -3  13  -8  140.98   20.36
  -3  13  -8  111.02   18.41
  -3  13  -8  131.94   19.62
  -3  13  -9  187.51   23.98
   3  13   9  150.03   19.03
  -3  13  -9  174.17   21.74
  -3  13  -9  157.59   20.57
  -3  13  -9  156.02   22.21
  -3  13 -10    7.39    3.56
   3  13  10   -0.76    3.86
  -3  13 -10    0.81    4.67
  -3  13 -10   -1.04    3.43
  -3  13 -10    2.96    6.77
  -3  13 -11    3.65    4.99
   3  13  11    2.90    2.38
  -3  13 -11   13.94    7.47
  -3  13 -11    1.44    4.65
  -3  13 -11    4.97    4.96
  -3  13 -12   -1.26    5.04
   3  13  12    4.08    2.60
  -3  13 -12   -4.95    4.45
  -3  13 -12    3.43    3.65
   3  13  13   65.76   10.72
  -3  13 -13   57.86   11.79
  -3  13 -13   68.35   10.25
  -3  13 -13   51.66   10.60
   3  13  14   56.36    9.90
  -3  13 -14   50.27   10.14
  -3  13 -14   40.22   10.24
   3  13  15   15.40    4.79
  -3  13 -15   20.18    6.05
   3  13  16    5.00    2.83
  -3  13 -16    8.38    3.91
   3  13  17    6.41    2.29
  -3  13 -17   10.66    4.36
  -3  14  16   10.49    2.73
   3  14 -16    6.14    2.20
   3  14 -15    7.54    2.77
   3  14 -14   16.42    4.35
  -3  14  13    6.55    3.31
   3  14 -13    0.81    2.12
  -3  14  12   74.75   12.21
   3  14 -12   39.29    7.29
  -3  14  11   14.99    5.18
   3  14 -11   10.26    4.23
   3  14 -10   32.16   10.04
  -3  14  10   37.87   10.65
   3  14 -10   14.70    5.93
   3  14  -9    7.70    5.86
   3  14  -9   14.50    5.13
   3  14  -9   24.00    9.58
  -3  14   9   11.89    3.25
   3  14  -9    3.57    5.03
   3  14  -8  197.68   25.83
   3  14  -8  198.19   21.43
   3  14  -8  197.27   24.63
  -3  14   8  175.46   23.15
   3  14  -8  153.14   21.73
  -3  14   7   56.64   13.55
   3  14  -7   51.84   13.08
  -3  14   7   52.60    9.29
   3  14  -7   55.81   13.28
   3  14  -7   65.69   13.08
   3  14  -7   51.73   16.10
   3  14  -6   59.10   14.18
   3  14  -6   25.21    7.33
  -3  14   6   41.30   11.93
   3  14  -6   40.58   12.73
   3  14  -6   25.62   10.68
  -3  14   5    8.87    5.81
  -3  14   5    6.05    6.22
   3  14  -5    2.28    8.41
   3  14  -5   -2.27    6.57
   3  14  -5   13.38    6.74
   3  14  -5    5.17    9.43
   3  14  -4  240.76   28.30
   3  14  -4  228.00   24.07
  -3  14   4  213.68   25.23
   3  14  -4  201.60   25.84
  -3  14   4  217.44   24.67
  -3  14   4  217.67   24.47
  -3  14   3    8.54    5.46
   3  14  -3    9.72    6.43
   3  14  -3    3.47    5.09
   3  14  -3   14.77    6.00
   3  14  -3   -7.08    7.23
  -3  14   3    1.82    4.61
  -3  14   2   79.57   16.19
   3  14  -2   65.90   13.26
   3  14  -2   46.61   12.60
   3  14  -2   55.70   13.65
   3  14  -2   58.36   16.40
  -3  14   2   74.95   15.01
  -3  14   1   26.14    8.49
   3  14  -1   40.93   11.26
   3  14  -1   40.80    9.71
   3  14  -1   31.76    9.75
  -3  14   1   31.73   10.50
   3  14  -1   54.56   13.67
   3  14  -1   13.77    5.35
  -3  14   1   34.60    8.79
   3  14   0  263.09   26.80
   3  14   0  263.24   30.63
  -3  14   0  214.40   25.50
   3  14   0  242.98   25.94
  -3  14   0  270.29   28.83
   3  14   0  215.35   29.31
  -3  14   0  242.73   27.69
  -3  14  -1   28.56   11.03
  -3  14  -1   33.97    9.67
   3  14   1   43.46   12.23
  -3  14  -1   43.38   11.91
   3  14   1   37.08   10.58
   3  14   1   34.73    8.98
   3  14   1   16.64    6.10
  -3  14  -1   46.09   13.22
  -3  14  -2   89.27   17.08
  -3  14  -2   70.64   15.12
   3  14   2   66.91   12.49
   3  14   2   57.39   12.19
  -3  14  -2   58.67   12.43
   3  14   2   64.19   14.92
   3  14   2   64.49   14.77
  -3  14  -2   65.93   14.99
  -3  14  -2   56.76   11.06
  -3  14  -3    3.99    4.16
  -3  14  -3    7.78    4.56
   3  14   3    3.02    2.96
   3  14   3    3.46    4.91
   3  14   3    5.88    8.30
   3  14   3   19.31    8.04
  -3  14  -3    1.03    4.26
  -3  14  -3    2.26    4.46
  -3  14  -4  163.34   22.07
  -3  14  -4  220.95   23.40
   3  14   4  158.38   21.74
  -3  14  -4  175.99   23.29
  -3  14  -4  187.54   21.23
  -3  14  -4  206.65   25.18
  -3  14  -5    5.96    5.15
   3  14   5   -1.10    5.03
  -3  14  -5    3.08    2.87
  -3  14  -5    5.13    4.61
  -3  14  -6   46.00   11.84
   3  14   6   64.48   14.30
  -3  14  -6   53.81   10.92
  -3  14  -6   30.97   10.69
  -3  14  -6   25.59    7.76
  -3  14  -6   39.23   10.26
  -3  14  -7   56.59   12.78
  -3  14  -7   51.79   10.59
   3  14   7   55.28   11.56
  -3  14  -7   64.31   13.51
  -3  14  -7   62.99   12.60
  -3  14  -7   55.83   12.53
   3  14   8  170.46   19.20
  -3  14  -8  183.31   21.61
  -3  14  -8  174.05   21.45
  -3  14  -8  161.11   20.75
  -3  14  -8  190.84   23.21
  -3  14  -9   15.13    7.25
   3  14   9   10.45    4.88
  -3  14  -9   15.09    7.76
  -3  14  -9   15.78    6.58
  -3  14  -9   21.03    8.70
  -3  14 -10   33.77    9.01
   3  14  10   17.94    7.03
  -3  14 -10   22.41    7.42
  -3  14 -10   20.64    7.78
  -3  14 -10   38.78   10.30
  -3  14 -11    8.85    4.04
   3  14  11   12.43    4.79
  -3  14 -11   16.59    6.95
  -3  14 -11   21.26    7.13
  -3  14 -11   18.70    7.30
   3  14  12   66.21   10.28
  -3  14 -12   54.73   11.53
  -3  14 -12   51.81    8.87
  -3  14 -12   39.45    9.19
   3  14  13    6.13    3.68
  -3  14 -13    9.35    3.47
  -3  14 -13    6.74    3.39
  -3  14 -13    6.96    3.98
   3  14  14   27.45    6.05
  -3  14 -14   20.10    5.57
  -3  14 -14   13.71    5.18
   3  14  15   13.73    3.52
  -3  14 -15    8.09    3.36
  -3  14 -15   10.22    4.03
   3  14  16   14.90    3.90
  -3  14 -16   11.10    3.30
  -3  14 -16   19.75    5.12
  -3  15  15   -0.55    0.93
  -3  15  14    4.18    2.01
  -3  15  13   13.56    4.04
  -3  15  13   12.17    3.63
  -3  15  12   15.79    4.54
  -3  15  12    8.44    2.18
  -3  15  11   13.62    5.61
  -3  15  11   10.03    3.91
  -3  15  10   25.45    8.02
  -3  15  10   19.15    5.00
   3  15  -9    7.96    5.58
  -3  15   9   18.41    8.02
   3  15  -9   10.83    5.38
  -3  15   9    5.03    3.01
   3  15  -9    1.50    3.44
   3  15  -8   14.37    7.16
  -3  15   8    8.48    3.92
  -3  15   8    7.49    6.01
   3  15  -8   10.62    4.03
   3  15  -8    4.18    4.65
   3  15  -8   11.10    7.09
   3  15  -7   40.62   10.83
   3  15  -7   50.92    9.94
  -3  15   7   58.62   13.36
   3  15  -7   43.49   11.33
   3  15  -7   60.90   13.30
   3  15  -6    2.82    3.27
  -3  15   6    0.90    6.61
   3  15  -6    6.46    5.17
   3  15  -6   -3.59    6.85
   3  15  -6   -1.04    6.10
  -3  15   5    8.16    3.57
   3  15  -5    8.60    5.42
  -3  15   5    9.08    6.67
   3  15  -5    3.69    2.79
   3  15  -5    1.50    2.24
  -3  15   4   32.94    8.91
   3  15  -4   22.84    8.74
  -3  15   4   24.58    8.68
   3  15  -4   30.24    8.55
   3  15  -4   35.55    9.19
  -3  15   4   35.15    9.44
  -3  15   3   27.64    8.15
   3  15  -3   21.15    7.65
   3  15  -3   31.68    9.49
   3  15  -3   33.29    8.45
   3  15  -3   14.71    6.43
  -3  15   3   24.48    7.72
  -3  15   2   17.34    6.75
   3  15  -2   17.74    8.17
   3  15  -2    8.88    3.87
   3  15  -2    9.63    6.40
   3  15  -2    2.49    6.96
  -3  15   2    5.97    3.97
  -3  15   1   19.04    7.31
   3  15  -1   14.74    6.25
   3  15  -1   20.97    7.44
  -3  15   1   20.52    6.95
   3  15  -1   14.01    6.50
   3  15  -1   23.17    9.92
  -3  15   1   24.86    8.61
  -3  15   0    0.92    6.93
   3  15   0    9.08    5.58
  -3  15   0   10.61    6.44
   3  15   0    4.75    5.27
   3  15   0    8.85    5.52
   3  15   0   -3.48    8.03
  -3  15   0   11.01    7.51
  -3  15  -1   19.44    7.15
  -3  15  -1   19.51    8.35
   3  15   1   21.74    7.50
   3  15   1   19.05    7.79
   3  15   1   24.80   10.06
   3  15   1    5.41    5.80
  -3  15  -1   23.42    9.17
  -3  15  -2   11.00    5.91
   3  15   2    6.65    3.25
   3  15   2   16.36    6.74
  -3  15  -2   10.50    4.63
   3  15   2    5.31    4.85
  -3  15  -2    9.34    5.50
   3  15   2   15.08    7.31
   3  15   3   26.10    8.72
  -3  15  -3   23.88    7.93
   3  15   3   18.71    6.04
   3  15   3    9.41    4.17
  -3  15  -3   23.85    9.51
  -3  15  -3   29.49    7.50
   3  15   4   50.74   12.36
   3  15   4   22.17    7.65
  -3  15  -4   27.06    7.72
  -3  15  -4   28.50    9.30
  -3  15  -4   24.16    7.70
  -3  15  -5    5.21    5.07
   3  15   5   13.42    6.18
   3  15   5    6.08    4.70
  -3  15  -5    4.85    3.57
  -3  15  -5    8.07    5.68
  -3  15  -6    4.23    3.36
  -3  15  -6   -1.96    4.52
  -3  15  -6    3.13    2.26
  -3  15  -7   33.20    8.29
  -3  15  -7   50.61    9.63
  -3  15  -7   53.94   12.51
  -3  15  -7   42.67   10.40
  -3  15  -8    3.74    3.65
   3  15   8   10.25    4.13
  -3  15  -8   13.35    5.64
  -3  15  -8    4.19    3.42
  -3  15  -9    4.07    5.34
   3  15   9    8.49    4.23
  -3  15  -9    8.90    4.55
  -3  15  -9   13.03    5.21
  -3  15  -9   10.72    4.04
  -3  15 -10   21.75    6.57
   3  15  10   14.25    4.04
  -3  15 -10    9.09    3.70
  -3  15 -10   15.65    5.43
  -3  15 -10   20.93    7.94
   3  15  11   12.60    4.99
  -3  15 -11   17.74    5.59
  -3  15 -11   14.93    5.76
  -3  15 -11    6.29    3.65
   3  15  12   17.49    4.72
  -3  15 -12   20.23    5.43
  -3  15 -12   17.54    5.58
  -3  15 -12   25.51    6.85
   3  15  13   12.36    4.44
  -3  15 -13    5.19    1.92
  -3  15 -13    5.40    2.61
  -3  15 -13    5.68    2.81
   3  15  14    9.02    3.35
  -3  15 -14    5.86    2.89
  -3  15 -14    1.71    2.16
   3  15  15   -0.28    1.02
  -3  15 -15   -0.24    1.25
  -3  15 -15    3.10    1.31
  -3  16  13    0.92    1.06
  -3  16  12   -1.01    2.67
  -3  16  12    1.14    1.21
  -3  16  11   23.23    5.53
  -3  16  11   21.42    4.21
  -3  16  10    5.13    2.40
  -3  16  10   10.92    5.05
  -3  16   9    7.77    4.51
  -3  16   9    5.42    2.98
   3  16  -8    1.25    2.96
   3  16  -8    2.39    2.86
  -3  16   8   -1.33    2.72
   3  16  -7   -0.53    2.00
   3  16  -7    4.04    3.20
  -3  16   7    3.59    4.01
   3  16  -7    3.93    3.96
   3  16  -7    5.41    4.01
   3  16  -6    0.69    2.89
  -3  16   6    3.77    4.67
   3  16  -6    2.13    2.19
   3  16  -6    1.17    2.38
   3  16  -6   -2.49    3.88
   3  16  -5   20.59    7.01
  -3  16   5   27.80    8.89
   3  16  -5   22.52    6.96
   3  16  -5   22.87    6.99
  -3  16   4   13.43    4.46
   3  16  -4   17.67    6.26
   3  16  -4    1.47    2.78
   3  16  -4    2.64    2.17
  -3  16   4   10.94    7.16
  -3  16   4    0.67    4.05
  -3  16   3   26.87    6.68
   3  16  -3   36.21    9.26
   3  16  -3   30.82    7.77
   3  16  -3   22.25    6.77
   3  16  -3   25.02   10.69
  -3  16   3   23.23    7.40
  -3  16   2    9.43    4.47
   3  16  -2   -0.72    3.15
   3  16  -2   -1.41    3.02
   3  16  -2   -0.71    3.22
  -3  16   2    0.74    3.34
   3  16  -2   -3.07    8.04
  -3  16   1   -0.76    2.79
   3  16  -1    3.41    3.31
  -3  16   1    6.90    5.38
   3  16  -1    4.31    2.53
  -3  16   1   -3.10    3.19
  -3  16   0    7.05    4.43
   3  16   0    7.23    4.96
   3  16   0    2.91    3.63
  -3  16   0    5.30    5.96
  -3  16   0   17.69    7.47
   3  16   0   19.65    8.23
  -3  16  -1    5.52    5.01
  -3  16  -1    0.73    3.20
   3  16   1    2.19    2.46
   3  16   1    2.79    5.50
  -3  16  -1    0.82    3.45
  -3  16  -2    7.03    4.60
   3  16   2    2.20    2.67
  -3  16  -2    4.18    5.40
  -3  16  -2    5.70    6.08
   3  16   2   -1.75    5.42
  -3  16  -3   34.49    8.31
   3  16   3   42.24    9.98
  -3  16  -3   33.50    8.99
  -3  16  -4    8.78    5.44
  -3  16  -4    4.63    2.94
  -3  16  -4    0.57    3.27
  -3  16  -5   21.68    8.12
  -3  16  -5   20.13    6.50
   3  16   5   21.46    6.77
  -3  16  -5   25.35    6.95
  -3  16  -6   -2.08    3.54
   3  16   6   -0.63    2.42
  -3  16  -6   -0.55    2.76
  -3  16  -6    6.35    3.63
  -3  16  -7   -2.00    4.20
  -3  16  -7   -0.65    2.71
  -3  16  -7    3.28    3.67
  -3  16  -8   -3.67    3.21
  -3  16  -8   -4.87    5.18
  -3  16  -8    1.31    3.05
  -3  16  -9    2.74    2.65
  -3  16  -9    4.46    3.85
  -3  16  -9   -1.89    3.17
   3  16  10    3.80    2.92
  -3  16 -10    1.94    2.41
  -3  16 -10    4.62    3.40
   3  16  11   27.83    6.07
  -3  16 -11   35.84    6.76
  -3  16 -11   24.33    6.52
   3  16  12    1.12    1.37
  -3  16 -12    3.82    2.17
  -3  16 -12    2.57    2.67
   3  16  13    0.63    1.24
  -3  16 -13   -3.15    2.92
  -3  17  11   -0.84    1.79
  -3  17  10    0.72    1.85
  -3  17   9   26.09    6.43
  -3  17   8   18.96    5.45
   3  17  -7    6.52    2.92
  -3  17   7    7.71    3.37
   3  17  -6    4.35    2.86
   3  17  -6    8.64    3.67
  -3  17   6    8.25    3.20
   3  17  -5   22.53    6.07
  -3  17   5   25.21    6.77
   3  17  -5   21.76    5.68
   3  17  -4    7.15    3.65
  -3  17   4   11.96    5.71
   3  17  -4   13.75    4.64
   3  17  -4   17.51    7.50
  -3  17   3   23.06    6.41
   3  17  -3   22.67    5.96
   3  17  -3   13.90    4.99
   3  17  -3   16.96    7.16
  -3  17   3   32.01    7.71
  -3  17   2    2.30    3.25
   3  17  -2   -1.02    1.59
   3  17  -2    2.26    3.49
  -3  17   2   -0.61    3.05
   3  17  -2   -3.98    5.20
  -3  17   1   14.73    5.80
  -3  17   1   24.97    8.19
   3  17  -1   21.68    6.15
   3  17  -1   29.25    7.41
   3  17  -1   31.18    9.66
  -3  17   1   36.28    8.41
  -3  17   0    1.91    2.70
   3  17   0    8.40    4.22
  -3  17   0   14.14    4.97
  -3  17   0    4.71    2.91
  -3  17  -1   18.03    6.74
   3  17   1   20.05    6.64
  -3  17  -1   26.58    7.23
  -3  17  -1   17.13    5.64
  -3  17  -2    5.12    3.26
   3  17   2    2.44    1.77
  -3  17  -2   -0.58    2.38
  -3  17  -2    0.68    3.21
  -3  17  -3   18.77    6.67
  -3  17  -3   21.28    5.83
   3  17   3   30.15    7.92
  -3  17  -3   21.42    7.27
   3  17   4   13.89    5.47
  -3  17  -4   11.35    4.48
  -3  17  -4   11.59    5.45
  -3  17  -5   23.72    6.57
  -3  17  -5   21.22    5.55
   3  17   5   25.39    6.58
  -3  17  -5   26.84    7.61
  -3  17  -6    6.57    2.74
   3  17   6    2.62    2.23
  -3  17  -7    6.16    3.11
   3  17   7    7.38    3.78
  -3  17  -7    5.79    3.45
  -3  17  -7    8.24    3.17
  -3  17  -8   11.80    4.60
  -3  17  -8    4.32    3.83
  -3  17  -8    9.89    4.09
  -3  17  -9   17.28    5.14
  -3  17  -9   16.44    4.47
  -3  17 -10   -0.36    2.41
  -3  17 -10    1.13    1.52
   3  17  11    3.00    1.32
  -3  17 -11    1.43    1.95
  -3  17 -11    6.35    2.50
  -3  18   9    9.14    3.00
  -3  18   8   18.22    4.76
  -3  18   7   40.13    6.59
  -3  18   6   19.97    5.73
   3  18  -6   12.44    3.21
  -3  18   5    5.08    3.27
   3  18  -5    5.53    2.54
   3  18  -4   22.72    4.96
  -3  18   4   31.99    7.26
   3  18  -3    5.48    2.76
  -3  18   3   -1.69    2.02
  -3  18   2   15.29    4.54
   3  18  -2   22.51    5.18
  -3  18   2   15.03    4.78
  -3  18   1   22.16    5.61
   3  18  -1   25.36    5.64
  -3  18   1   18.90    5.30
  -3  18   1   22.30    6.00
  -3  18   0   39.39    8.29
   3  18   0   25.36    5.60
  -3  18   0   21.48    5.80
  -3  18   0   31.91    7.48
  -3  18  -1   22.38    6.05
   3  18   1   21.82    5.78
  -3  18  -1   19.17    5.45
  -3  18  -1   18.54    7.08
  -3  18  -2   23.84    6.45
  -3  18  -2   21.23    6.13
   3  18   2   25.48    6.00
  -3  18  -2   15.82    5.37
  -3  18  -3    4.86    3.56
  -3  18  -3    0.43    2.76
   3  18   3    6.35    2.65
  -3  18  -3   10.68    4.65
   3  18   4   21.08    4.85
  -3  18  -4   14.37    3.85
  -3  18  -4   26.59    6.44
   3  18   5    2.52    1.46
  -3  18  -5    3.37    2.72
   3  18   6   14.78    4.40
   3  18   7   37.39    6.41
  -3  18  -7   22.96    5.62
   3  18   8   24.51    5.04
  -3  18  -8   10.01    3.10
   3  18   9    5.92    2.10
  -3  18  -9    0.62    2.84
  -3  19   6   16.12    3.70
  -3  19   5   -2.90    2.51
   3  19  -4    1.29    0.98
  -3  19   4    3.73    2.24
   3  19  -3   10.65    2.91
   3  19  -2    7.67    2.29
  -3  19   2    7.12    2.82
  -3  19   1    4.24    2.37
   3  19  -1    3.55    2.13
  -3  19   1    2.48    2.31
  -3  19   0   31.35    5.62
   3  19   0   20.99    4.31
  -3  19   0   15.78    4.67
  -3  19  -1    1.02    1.58
   3  19   1    3.79    1.86
  -3  19  -1    0.40    2.11
  -3  19  -2    5.89    2.75
   3  19   2    9.86    3.09
  -3  19  -2    3.64    2.01
   3  19   3    4.74    1.98
  -3  19  -3    1.54    1.60
  -3  19  -3    3.57    2.20
   3  19   4    0.31    1.08
  -3  19  -4    4.16    3.48
   3  19   5    2.67    1.70
  -3  19  -5    8.09    3.77
   3  19   6    4.76    1.87
   4   0 -22   35.90    7.81
   4   0 -22   29.93    5.68
   4   0 -21   -0.99    2.11
   4   0 -20   23.65    6.98
   4   0 -19    4.50    3.85
   4   0 -18    4.30    3.34
   4   0 -17   -4.99    4.59
   4   0 -16   32.79   12.41
   4   0 -15   45.33   13.83
   4   0 -15   53.07   15.67
   4   0 -14  455.67   49.66
   4   0 -14  348.35   44.18
   4   0 -13   13.56    8.71
   4   0 -13   25.65   15.79
   4   0 -12   46.61   17.64
   4   0 -12   -2.12    8.96
   4   0 -11   10.02   11.45
   4   0 -10  107.12   23.96
   4   0  -9   36.14   13.57
   4   0  -8 2142.67  106.07
   4   0  -8 2140.52  103.29
   4   0  -7   45.32   11.96
   4   0  -7   36.46   13.80
   4   0  -6 5007.54  167.70
  -4   0   6 5126.67  174.80
   4   0  -6 4653.12  162.42
   4   0  -5   15.83    9.06
  -4   0   5   14.39    8.23
  -4   0   4   10.79    8.43
  -4   0   3    7.27    4.94
  -4   0   2 3843.03  129.81
  -4   0   1   11.16    9.04
  -4   0   0 3934.73  131.56
  -4   0  -1   15.64    8.58
  -4   0  -2 4033.26  135.47
  -4   0  -3   15.33    7.90
  -4   0  -4    4.92    6.35
  -4   0  -5   13.31    8.16
   4   0   6 4476.87  170.40
  -4   0  -6 4371.25  148.85
   4   0   7   23.85   17.32
  -4   0  -7   26.78   10.59
   4   0   8 2075.13  117.47
  -4   0  -8 1881.19   95.96
   4   0   9   11.62   13.07
  -4   0  -9   33.52   12.11
   4   0  10   98.82   26.93
  -4   0 -10  102.76   24.16
   4   0  11   12.25   15.74
   4   0  12   19.05   14.26
  -4   0 -12   -2.31   10.57
  -4   0 -13    6.76    6.08
   4   0  13   17.53   17.08
   4   0  14  616.87   69.16
  -4   0 -14  428.04   51.76
   4   0  15   39.62   19.72
  -4   0 -15   34.20   13.67
  -4   0 -15   27.89   10.51
   4   0  16   64.94   19.40
   4   0  16   61.44   19.08
  -4   0 -16   48.93   14.09
   4   0  17   -1.40    4.27
   4   0  18    1.16    3.01
   4   0  19    0.94    5.28
   4   0  20   11.90    5.80
   4   0  21   12.91    5.79
   4   0  22   27.95    6.17
   4  -1 -22    0.97    2.34
   4   1 -22    8.85    3.90
   4   1 -22    3.58    2.63
   4   1 -21   31.89    8.72
   4   1 -21   44.95    8.59
   4  -1 -21   24.24    6.41
   4   1 -20    9.92    5.32
   4  -1 -20   10.77    3.85
   4  -1 -19   -0.90    4.64
   4  -1 -18   20.35   10.31
   4  -1 -17   -1.24    3.94
   4  -1 -16    9.95    7.80
   4  -1 -15  237.79   33.72
   4  -1 -15  246.56   34.83
   4  -1 -14   67.37   20.05
   4  -1 -14   69.63   19.01
   4  -1 -13  158.90   30.15
   4  -1 -13  117.57   26.15
   4  -1 -12   30.80   12.56
   4  -1 -12   14.74   10.73
   4  -1 -11   10.84    6.08
   4  -1 -10  447.21   48.09
   4  -1  -9  437.35   45.44
   4  -1  -8   27.51   11.52
   4  -1  -8   31.99   13.97
   4  -1  -7 3200.68  125.88
   4  -1  -7 2943.87  120.79
   4  -1  -6 1838.73   85.83
  -4  -1   6 1838.77   90.44
   4  -1  -6 1729.28   83.13
  -4  -1   5  259.53   28.69
   4  -1  -5  260.87   27.88
  -4  -1   4   11.10   10.12
  -4  -1   3  519.79   37.94
  -4  -1   2 2392.70   92.01
  -4  -1   1 2295.35   89.67
  -4  -1   0   53.01   12.41
  -4  -1  -1 2267.19   87.97
  -4  -1  -2 2567.38   94.44
  -4   1  -2 2284.35   63.57
  -4  -1  -3  595.17   41.65
  -4  -1  -4    7.49    4.95
  -4  -1  -5  249.24   26.54
   4  -1   6 1700.73   92.94
  -4  -1  -6 1525.25   73.98
   4  -1   7 3043.23  136.54
  -4  -1  -7 2726.27  112.01
   4  -1   8   32.66   13.67
  -4  -1  -8   31.15   10.16
   4  -1   9  463.13   55.86
  -4  -1  -9  374.99   41.51
   4  -1  10  471.50   61.12
  -4  -1 -10  479.11   50.47
   4  -1  11   22.68   14.43
   4  -1  12   33.20   18.80
  -4  -1 -12   18.14   10.29
   4  -1  13  193.22   40.36
  -4  -1 -13  172.48   33.82
  -4   1 -13  176.93   33.27
   4  -1  14  112.12   28.83
  -4  -1 -14  100.76   25.43
  -4   1 -14   75.67   20.66
   4  -1  15  308.79   46.27
  -4  -1 -15  265.35   39.10
  -4   1 -15  282.03   37.38
   4  -1  16    8.39    7.58
  -4   1 -16   23.87    9.43
   4  -1  17    1.41    4.29
  -4   1 -17    7.22    6.12
   4  -1  18    3.48    6.90
  -4   1 -18    8.07    4.49
   4  -1  19    9.33    6.09
  -4   1 -19    3.29    2.72
   4  -1  20   -0.73    4.62
  -4   1 -20    3.84    3.45
   4  -1  21   33.65    7.80
   4  -1  22    2.27    2.48
   4  -2 -22   32.24    6.61
   4   2 -22   15.69    4.03
   4   2 -22   28.50    6.92
   4   2 -21   11.02    4.33
   4   2 -21    0.54    2.82
   4   2 -20   17.53    6.63
   4  -2 -20   12.81    4.63
   4  -2 -19    8.86    5.92
   4   2 -19    5.89    4.66
   4   2 -19   19.70    9.03
   4   2 -18    6.02    3.96
   4  -2 -18    4.25    5.54
   4   2 -17    4.64    7.16
   4  -2 -17   11.15    8.26
   4  -2 -16   14.17    8.01
   4   2 -16   23.75    9.35
   4   2 -15  152.81   27.26
   4  -2 -15  136.16   24.57
   4  -2 -15   78.51   18.51
   4   2 -15   73.98   18.33
   4  -2 -14  177.96   28.68
   4   2 -14  210.76   31.92
   4  -2 -14  164.44   29.41
   4   2 -14  155.91   27.79
   4   2 -13    3.58   10.13
   4  -2 -13    8.23    6.90
   4  -2 -13   -1.85    4.18
   4   2 -13    5.39    7.92
   4   2 -12    8.95    7.55
   4  -2 -12    8.34    8.78
   4   2 -12   -1.93   10.61
   4  -2 -12   21.64   12.71
   4   2 -11  283.93   37.92
   4  -2 -11  317.31   40.14
   4  -2 -10   32.81   13.88
   4   2 -10   58.75   16.83
   4   2  -9   83.67   19.71
   4  -2  -9   75.73   17.16
   4   2  -8  873.66   59.16
   4  -2  -8  869.25   60.00
   4  -2  -8  879.72   61.38
   4   2  -8  793.92   57.31
   4   2  -7  907.66   57.40
   4  -2  -7  953.20   59.41
   4  -2  -7  915.34   59.13
   4   2  -7  813.43   54.20
  -4  -2   6  870.82   57.10
  -4   2   6  786.40   52.39
   4  -2  -6  750.55   50.65
   4   2  -6  771.65   50.14
  -4  -2   5  462.14   38.41
  -4   2   5  447.10   37.64
   4  -2  -5  427.86   36.02
   4   2  -5  422.59   35.24
  -4  -2   4   14.89    8.09
  -4   2   4    7.74    5.88
  -4  -2   3 1025.04   54.33
  -4   2   3 1109.01   56.25
  -4  -2   2   20.74    7.42
  -4   2   2   13.10    7.03
  -4  -2   1  608.34   39.43
  -4   2   1  462.70   33.94
  -4   2   0 2626.68   94.68
  -4  -2   0 2676.35   96.89
  -4   2  -1  589.03   39.07
  -4  -2  -1  535.66   36.39
  -4  -2  -2   14.87    7.34
  -4   2  -2   15.19    3.53
  -4  -2  -3 1187.56   60.92
  -4   2  -3 1208.17   61.59
  -4  -2  -4   18.83    7.96
  -4   2  -4   -0.90    4.52
  -4  -2  -5  415.55   33.79
  -4   2  -5  406.86   34.14
  -4  -2  -6  760.46   48.30
   4   2   6  768.00   56.51
   4  -2   6  764.16   59.45
  -4   2  -6  704.54   47.64
   4   2   7  836.90   62.02
   4  -2   7  926.98   68.15
  -4   2  -7  807.07   56.01
  -4  -2  -7  792.42   52.58
  -4   2  -7  787.58   53.65
   4  -2   8  874.92   70.63
   4   2   8  840.83   66.78
  -4   2  -8  712.06   54.82
  -4  -2  -8  699.72   53.75
   4  -2   9   86.36   23.86
   4   2   9   95.36   25.38
  -4   2  -9   60.04   18.29
  -4  -2  -9   80.40   18.80
   4  -2  10   36.42   17.28
   4   2  10   49.33   21.05
   4  -2  11  453.87   60.28
   4   2  11  322.74   50.00
   4  -2  12   -2.86   11.80
   4   2  12   12.86   10.91
  -4   2 -12   21.79   16.13
  -4  -2 -12   24.97   16.08
  -4   2 -12   12.15   10.81
   4  -2  13   -5.78    9.74
   4   2  13    2.48   10.30
  -4   2 -13    2.11    8.14
  -4  -2 -13    2.20    7.91
  -4   2 -13    7.06    4.52
   4  -2  14  226.44   42.28
   4   2  14  191.81   36.99
  -4   2 -14  173.05   32.25
  -4  -2 -14  234.53   37.89
  -4   2 -14  175.77   32.42
   4   2  15   89.35   23.82
  -4  -2 -15   78.12   21.43
  -4   2 -15   83.67   21.38
   4  -2  15  103.84   26.82
   4   2  15   84.54   21.70
   4  -2  15  106.12   26.01
  -4   2 -15  136.19   26.01
   4  -2  16   30.21   12.95
   4   2  16   37.85   15.08
  -4   2 -16   40.90   14.60
   4  -2  17    2.80    8.51
   4   2  17    3.70    5.29
  -4   2 -17   -7.38    6.01
   4  -2  18    9.15    7.97
   4   2  18    6.21    5.10
  -4   2 -18   16.78    7.80
   4  -2  19   11.80    6.22
   4   2  19    5.11    5.02
  -4   2 -19   24.42    8.72
   4   2  20   18.44    6.40
   4  -2  20   11.87    5.72
  -4   2 -20    6.22    3.27
   4  -2  21    2.57    2.33
   4   2  21    6.82    3.13
  -4   2 -21   -1.52    3.19
   4  -2  22   13.10    3.56
   4   2  22   15.57    4.30
   4  -3 -22    0.37    1.58
   4   3 -22   -0.69    2.43
   4   3 -22   -1.40    2.04
   4   3 -21   38.24    9.67
   4   3 -21   31.62    8.19
   4   3 -20   -1.48    3.28
   4   3 -19    6.67    6.45
   4  -3 -18    5.22    3.18
   4   3 -18   -2.92    4.68
   4  -3 -17   -1.21    5.82
   4   3 -17    3.39    3.31
   4   3 -16    6.42    3.65
   4  -3 -16   24.14   11.86
   4   3 -15  122.97   22.45
   4  -3 -15   67.21   18.29
   4  -3 -15   89.91   20.60
   4   3 -15   74.88   20.09
   4   3 -14   59.11   16.22
   4  -3 -14   58.08   15.98
   4  -3 -14   32.14   12.86
   4   3 -14   47.89   15.86
   4   3 -13  120.94   24.91
   4  -3 -13  118.18   23.59
   4  -3 -13   46.85   15.16
   4   3 -13   69.94   19.87
   4   3 -12    1.66    8.49
   4  -3 -12   -4.63    6.51
   4  -3 -12   -5.54    7.71
   4   3 -11   51.11   15.99
   4  -3 -11   52.91   16.08
   4   3 -10   45.84   16.72
   4  -3 -10   30.08   10.91
   4   3  -9   56.80   14.80
   4  -3  -9   69.65   17.48
   4   3  -8   30.42   11.27
   4   3  -8   11.69    7.03
   4  -3  -8   20.65    9.05
   4  -3  -8   21.23    7.86
   4   3  -7 1026.19   59.73
   4  -3  -7  917.75   56.96
  -4  -3   7  971.74   63.40
  -4   3   7  967.11   57.84
   4  -3  -7  938.46   59.73
   4   3  -7  910.97   58.16
  -4  -3   6  194.17   25.93
  -4   3   6  183.89   24.00
   4   3  -6  199.31   24.41
   4  -3  -6  177.15   24.06
  -4   3   5   38.41   11.03
  -4  -3   5   47.87   12.16
   4  -3  -5   63.67   13.80
   4   3  -5   63.82   14.88
  -4  -3   4   24.23    8.61
  -4   3   4   21.44    8.83
  -4  -3   3  270.19   25.91
  -4   3   3  234.15   23.76
  -4  -3   2  145.98   18.33
  -4   3   2  147.24   18.53
  -4  -3   1  907.23   50.29
  -4   3   1  935.01   47.51
  -4   3   0   91.13   14.50
  -4  -3   0  136.52   17.38
  -4   3  -1  960.36   50.99
  -4  -3  -1  920.32   48.77
  -4   3  -1  862.59   38.70
  -4  -3  -2  168.65   20.15
  -4   3  -2  152.81   19.90
  -4   3  -2  118.89   12.30
  -4   3  -3  259.61   26.06
  -4  -3  -3  250.29   26.41
  -4  -3  -4   25.78    8.23
  -4   3  -4   31.30   10.72
  -4  -3  -5   56.34   12.27
  -4   3  -5   59.45   12.74
  -4  -3  -6  191.78   22.99
  -4   3  -6  162.47   22.06
   4   3   7  861.47   61.29
   4  -3   7  952.88   68.08
  -4  -3  -7  842.45   54.59
  -4   3  -7  817.33   54.89
   4  -3   8   13.96    6.97
  -4  -3  -8    8.70    5.79
  -4   3  -8   21.99    9.30
   4   3   9   66.03   21.15
  -4   3  -9   49.49   15.07
  -4  -3  -9   50.99   13.93
   4  -3   9   43.87   14.70
   4  -3  10   37.75   13.47
   4   3  10   16.85   14.02
   4   3  11   33.48   14.60
   4  -3  11   53.69   18.77
   4  -3  12    7.79   14.30
   4   3  12    6.88    7.00
  -4   3 -12    4.23   15.04
  -4  -3 -12   -2.28    7.08
  -4   3 -12    1.58    6.50
   4  -3  13  132.07   33.63
   4   3  13   98.77   27.78
  -4   3 -13   85.34   23.70
  -4  -3 -13   91.03   24.08
  -4   3 -13   89.41   21.23
  -4   3 -13   89.13   21.74
   4  -3  14   58.65   21.32
   4   3  14   73.09   21.26
  -4   3 -14   60.26   20.37
  -4  -3 -14   47.41   19.29
   4  -3  14   39.45   13.36
   4   3  14   41.33   16.28
  -4   3 -14   56.35   15.61
  -4   3 -14   42.70   13.40
   4  -3  15  136.33   30.87
   4   3  15  108.45   24.71
  -4   3 -15   86.96   21.00
  -4  -3 -15   61.60   19.36
   4   3  15   98.61   23.40
   4  -3  15  115.65   26.49
  -4   3 -15  100.43   21.66
   4  -3  16    3.29    7.31
   4   3  16   -5.49    9.20
  -4   3 -16    2.77    5.05
   4  -3  17   -5.45    4.87
   4   3  17   -2.33    3.55
  -4   3 -17   -6.14    7.85
   4  -3  18    6.60    5.71
   4   3  18    4.87    7.39
  -4   3 -18    5.26    4.05
   4  -3  19   11.21    5.89
   4   3  19    4.01    4.81
  -4   3 -19   -3.50    3.98
   4   3  20    0.64    2.46
   4  -3  20    5.88    4.88
  -4   3 -20    0.70    2.54
   4  -3  21   17.57    5.36
   4   3  21   16.71    5.54
  -4   3 -21   23.24    6.43
   4  -3  22   -0.32    1.84
   4   3  22   -0.69    2.09
  -4   3 -22   -1.77    1.59
   4  -4 -22   10.12    3.28
   4   4 -22    7.58    2.84
   4   4 -21    5.67    2.19
   4   4 -20   11.57    6.23
   4   4 -19   -0.93    3.95
   4  -4 -18   28.45   10.64
   4   4 -18   25.47    9.58
   4   4 -18   19.51    8.32
   4  -4 -17   -2.24    4.55
   4   4 -17    4.41    6.52
   4   4 -16   22.65    9.54
   4  -4 -16   44.94   12.60
   4   4 -15   32.51   13.27
   4  -4 -15   32.94    9.29
   4   4 -15   27.59   10.60
   4  -4 -15   41.14   11.90
   4  -4 -14  137.54   24.90
   4   4 -14   73.76   18.66
   4   4 -14  153.72   25.46
   4  -4 -14  157.57   25.16
   4  -4 -13    3.23    5.75
   4   4 -13    8.63    5.47
   4  -4 -13    2.82    7.70
   4   4 -13   19.65    8.95
   4  -4 -12    3.46    5.68
   4   4 -12    1.86    8.34
   4   4 -12   13.53    7.92
   4   4 -12    9.09    9.74
   4  -4 -12   -1.41    8.10
   4  -4 -11  276.25   34.48
   4   4 -11  300.24   36.09
   4   4 -10   55.91   15.17
   4  -4 -10   34.03   12.99
   4   4  -9   11.09    6.36
   4  -4  -9   14.55   10.04
   4   4  -8  950.80   58.87
   4  -4  -8  904.60   57.17
  -4  -4   8  880.17   60.62
  -4   4   8  933.97   56.31
  -4  -4   7  395.24   37.79
  -4   4   7  462.52   37.24
   4  -4  -7  342.45   34.25
   4   4  -7  398.46   37.68
   4   4  -6  185.85   23.91
  -4  -4   6  247.55   26.85
   4  -4  -6  195.52   24.39
  -4   4   6  210.30   24.46
   4   4  -5   20.64    6.90
  -4  -4   5   17.26    9.03
  -4   4   5    7.49    5.67
   4  -4  -5   21.18    7.70
  -4  -4   4    6.42    4.09
  -4   4   4   15.33    7.48
   4   4  -4   17.22    6.26
   4  -4  -4   19.48    6.91
  -4  -4   3  340.83   29.67
  -4   4   3  337.91   28.33
  -4  -4   2  219.10   22.00
  -4   4   2  201.06   20.60
  -4  -4   1  420.62   32.10
  -4   4   1  464.55   31.44
  -4   4   0 2161.42   78.22
  -4  -4   0 2125.39   78.60
  -4   4  -1  456.73   28.62
  -4  -4  -1  458.59   32.38
  -4   4  -1  504.64   34.42
  -4   4  -2  220.13   18.58
  -4  -4  -2  215.36   22.64
  -4   4  -2  250.74   24.77
  -4  -4  -3  362.78   31.07
  -4   4  -3  360.44   29.95
  -4  -4  -4   16.30    7.79
  -4   4  -4   13.37    5.61
  -4  -4  -5   36.15   11.24
  -4   4  -5   13.06    5.97
  -4   4  -6  216.17   25.42
  -4  -4  -6  189.52   24.12
   4   4   7  342.09   35.80
  -4  -4  -7  325.69   34.89
  -4   4  -7  371.10   35.54
   4  -4   8  886.04   65.98
   4   4   8  859.18   60.80
  -4   4  -8  722.07   56.64
  -4  -4  -8  758.98   58.48
   4  -4   9   12.13    7.15
   4   4   9   27.47   13.68
  -4   4  -9    5.96    8.44
  -4  -4  -9    3.17    5.62
   4  -4  10    7.84    6.50
   4   4  10   23.15   11.12
   4  -4  11  273.78   42.85
   4   4  11  332.67   43.15
  -4   4 -11  198.52   35.13
  -4  -4 -11  198.74   36.17
  -4   4 -11  213.98   30.61
   4  -4  12   -2.27   12.78
   4   4  12    7.91   11.44
  -4   4 -12   -6.12   10.37
  -4  -4 -12    2.22    7.23
   4  -4  12   14.34   10.79
   4   4  12   14.33   12.62
  -4   4 -12   13.86    8.49
  -4   4 -12   -1.46    5.74
   4  -4  13    2.32    5.06
   4   4  13    3.93    5.63
  -4   4 -13    5.81    7.59
  -4  -4 -13    4.14    8.80
   4   4  13   -1.76    5.32
   4  -4  13    2.07    8.74
  -4   4 -13   13.41   11.06
  -4   4 -13    1.49    6.32
   4  -4  14  165.43   33.40
   4   4  14  168.78   30.63
  -4   4 -14  140.69   27.13
  -4  -4 -14  167.89   29.58
   4  -4  14  117.95   26.65
   4   4  14  114.94   25.36
  -4   4 -14  149.42   26.29
  -4   4 -14  143.29   26.00
   4  -4  15   54.45   18.55
   4   4  15   18.45    9.35
  -4   4 -15   30.54   12.51
  -4  -4 -15   54.52   16.25
   4  -4  15   42.07   16.36
   4   4  15   32.27   11.91
  -4   4 -15   44.77   14.40
  -4   4 -15   35.19   13.09
   4   4  16   24.14   11.19
   4  -4  16   49.88   15.26
  -4   4 -16   30.72   11.51
  -4   4 -16   28.84   11.14
   4   4  17    7.55    6.37
   4  -4  17    5.14    5.47
  -4   4 -17   -1.01    5.63
  -4   4 -17   -1.19    5.48
   4  -4  18   15.40    7.18
   4   4  18   10.79    2.64
  -4   4 -18    6.28    6.21
   4  -4  19   -2.38    3.33
   4   4  19    4.41    2.43
  -4   4 -19    2.63    3.57
   4  -4  20    5.36    3.07
   4   4  20    2.93    2.65
  -4   4 -20    1.40    2.65
   4  -4  21    2.14    2.64
   4   4  21    1.78    2.34
  -4   4 -21    5.28    3.09
   4  -4  22    9.82    3.73
   4   4  22    6.96    2.66
  -4   4 -22   10.30    3.55
   4  -5 -21   19.47    4.89
   4   5 -21   18.96    5.28
   4   5 -21   12.68    4.82
   4   5 -20    1.48    2.74
   4   5 -20    3.39    3.67
   4   5 -19   10.70    5.85
   4   5 -19    0.88    4.60
   4   5 -18   18.56    9.94
   4  -5 -17    3.06    4.33
   4   5 -17    3.14    3.93
   4   5 -17    3.85    7.05
   4  -5 -16    2.29    3.13
   4   5 -16   -3.60    6.02
   4  -5 -15  167.76   25.54
   4   5 -15  141.85   24.41
   4   5 -14   28.57   10.48
   4  -5 -14   27.49   10.99
   4   5 -14   54.86   15.63
   4  -5 -14   46.75   13.42
  -4  -5  14   45.51   14.87
  -4   5  14   30.90   10.44
   4  -5 -13   66.94   17.03
   4   5 -13   56.42   17.64
   4   5 -13   55.09   12.54
   4   5 -13   44.48   13.88
   4   5 -13  106.88   21.15
   4  -5 -13  105.98   20.45
  -4  -5  13   81.33   21.29
  -4   5  13   68.22   14.27
   4  -5 -12    3.19    7.18
   4   5 -12   14.49    9.94
   4   5 -12    7.15    6.05
   4   5 -12   -2.54    5.06
   4  -5 -12   -1.29    5.56
   4   5 -12   14.96    8.09
  -4  -5  12    2.88    7.12
  -4   5  12    5.81    5.54
   4  -5 -11   21.98   11.87
   4   5 -11   27.14   13.52
   4   5 -11   36.06   12.02
   4   5 -11   53.63   15.87
   4  -5 -11   27.82    9.87
   4   5 -11   48.88   14.18
  -4  -5  11   37.13   14.87
  -4   5  11   29.91   10.18
   4   5 -10  325.91   34.81
   4  -5 -10  324.92   34.25
  -4  -5  10  262.27   31.74
  -4   5  10  240.45   27.37
  -4   5   9  108.51   17.95
  -4  -5   9   76.48   16.81
  -4  -5   8   43.84   11.56
  -4   5   8   39.09   11.55
  -4   5   7 1095.41   57.49
  -4  -5   7  967.63   57.77
   4  -5  -7  857.36   57.20
   4   5  -7 1016.61   64.28
  -4  -5   6 1041.76   57.92
  -4   5   6 1187.01   59.58
   4  -5  -6 1025.31   58.75
   4   5  -6 1166.88   64.10
   4  -5  -5   18.07    7.55
   4   5  -5   33.32    9.53
  -4  -5   5   12.31    6.83
  -4   5   5    7.29    5.76
  -4  -5   4   76.75   14.02
  -4   5   4  117.41   16.25
   4   5  -4  112.95   16.64
   4  -5  -4   98.67   15.72
  -4  -5   3   16.73    6.19
  -4   5   3   18.63    6.63
  -4   5   3   16.16    5.27
  -4  -5   2 2687.11   94.35
  -4   5   2 2682.68   92.90
  -4  -5   1 1925.73   74.24
  -4   5   1 1891.54   72.14
  -4  -5   0   35.37    8.94
  -4   5   0   43.34    8.65
  -4   5   0   29.25    7.77
  -4  -5  -1 1977.82   77.38
  -4   5  -1 1908.41   74.22
  -4  -5  -2 2866.64  102.66
  -4   5  -2 2824.67   99.83
  -4  -5  -3   27.72    8.75
  -4   5  -3   16.78    5.43
  -4   5  -4   74.80   13.47
  -4  -5  -4  106.15   16.07
  -4  -5  -5   13.08    3.85
  -4   5  -5    6.30    5.74
  -4  -5  -6  968.01   55.60
  -4   5  -6  954.89   55.10
  -4   5  -6  930.50   65.91
  -4  -5  -7  852.80   57.94
  -4   5  -7  908.04   58.10
  -4   5  -7  934.76   66.66
  -4   5  -8   32.24   12.29
  -4  -5  -8   53.96   15.40
  -4   5  -8   60.76   16.71
   4  -5   9   95.62   22.26
   4   5   9   82.33   18.77
   4  -5  10  298.90   39.13
   4   5  10  271.07   34.89
  -4  -5 -10  198.26   35.48
   4   5  11   51.53   15.01
  -4   5 -11   32.80   16.10
  -4  -5 -11   40.82   17.73
   4  -5  11   25.75   13.47
   4  -5  11   12.02    5.34
   4   5  11   41.12   14.11
  -4   5 -11   35.65   13.05
  -4   5 -11   34.53   13.20
   4  -5  12    5.85    8.56
   4   5  12    6.54    6.75
  -4   5 -12    3.75    8.00
  -4  -5 -12   26.63   14.08
   4   5  12   -1.52    5.12
   4  -5  12   14.41   11.06
  -4   5 -12    4.76    4.94
  -4   5 -12   15.10    8.96
   4  -5  13   63.88   21.44
   4   5  13   73.98   19.82
  -4   5 -13   80.79   20.46
  -4  -5 -13   74.81   20.70
   4  -5  13   76.67   20.80
   4   5  13   95.27   22.94
  -4   5 -13   58.68   18.25
  -4   5 -13   57.02   16.48
   4  -5  14   44.98   16.04
   4   5  14   40.97   13.81
  -4  -5 -14   20.06    7.86
  -4   5 -14   49.79   14.99
   4  -5  14   61.94   17.82
   4   5  14   34.39   12.67
  -4   5 -14   59.21   16.03
  -4   5 -14   34.55   12.82
   4   5  15  112.82   21.90
   4  -5  15  197.92   31.40
  -4   5 -15  180.89   27.19
  -4   5 -15  189.38   27.82
   4  -5  16    7.15    6.09
   4   5  16    6.79    3.32
  -4   5 -16   -6.89    4.74
  -4   5 -16   13.71    7.54
   4   5  17    3.84    2.90
   4  -5  17   -4.69    4.95
  -4   5 -17   10.80    5.99
  -4   5 -17    5.69    5.34
   4  -5  18    6.50    4.61
   4   5  18    6.38    5.37
  -4   5 -18    5.68    3.84
  -4   5 -18    8.07    6.71
   4  -5  19    6.41    2.90
   4   5  19    9.07    4.69
  -4   5 -19    7.04    3.84
  -4   5 -19    2.58    3.39
   4  -5  20    3.70    2.28
   4   5  20    2.54    2.28
   4  -5  21   15.06    4.61
   4   5  21   13.90    3.95
  -4   5 -21   14.03    4.63
   4   6 -21   -2.50    3.04
   4   6 -21    1.28    1.67
   4   6 -20   12.65    5.91
   4   6 -20    9.11    4.51
   4   6 -19   -2.42    5.59
   4   6 -19    4.84    5.54
   4   6 -18    4.04    4.25
   4   6 -18   -3.99    6.05
   4  -6 -17   -4.49    5.47
   4   6 -17   -4.74    3.83
   4   6 -17    2.35    4.26
   4   6 -16   12.13    7.77
   4  -6 -16    8.17    6.53
   4   6 -15    7.48    4.34
   4  -6 -15   20.37   10.07
   4  -6 -14  188.86   26.69
   4   6 -14  217.91   30.42
   4   6 -14  174.30   23.77
  -4  -6  14  217.05   33.42
  -4   6  14  192.93   23.13
   4  -6 -13   16.03    9.27
   4   6 -13   -4.60    7.07
   4   6 -13    2.36    5.66
   4   6 -13    3.00    4.49
  -4  -6  13   -4.10    7.76
  -4   6  13    9.39    3.23
   4   6 -12   10.09   10.88
   4  -6 -12   -4.31    7.44
   4   6 -12   -1.07    5.02
   4   6 -12   -5.23    7.91
  -4  -6  12   -6.16    4.86
  -4   6  12   -3.43    4.21
   4  -6 -11   26.07   11.60
   4   6 -11   10.94    8.56
   4   6 -11    3.36    5.17
   4   6 -11   17.00   10.58
  -4  -6  11   10.11    6.99
  -4   6  11    8.55    5.23
   4   6 -10   13.51    8.48
   4   6 -10    5.76    4.16
  -4   6  10   11.82    7.20
  -4  -6  10   -5.19    5.96
  -4  -6   9    0.96    6.04
  -4   6   9    1.67    4.81
  -4  -6   8  261.69   27.37
  -4   6   8  339.65   29.56
  -4  -6   7   13.63    6.73
  -4   6   7   26.30    9.86
  -4  -6   6  527.31   37.82
  -4   6   6  587.68   38.68
   4   6  -6  584.03   45.43
   4  -6  -6  443.89   37.96
  -4   6   5   30.41    8.33
   4   6  -5   29.04    9.15
   4  -6  -5   29.40    9.94
  -4  -6   5   53.92   12.29
  -4  -6   4   81.28   14.03
  -4   6   4   81.49   13.20
   4  -6  -4   69.79   12.97
   4   6  -4   86.62   14.71
  -4  -6   3   12.48    5.72
  -4   6   3   18.15    7.29
   4  -6  -3   12.95    6.81
   4   6  -3    6.87    3.42
  -4   6   3    9.90    4.38
  -4  -6   2  264.30   23.21
  -4   6   2  299.51   23.87
  -4   6   2  257.03   24.01
  -4   6   2  265.58   23.42
  -4  -6   1   48.40    9.78
  -4   6   1   36.52    7.85
  -4   6   1   32.60    8.83
  -4   6   0 1391.05   56.97
  -4  -6   0 1271.04   55.58
  -4  -6  -1   27.59    8.37
  -4   6  -1   51.40   10.32
  -4   6  -1   27.67    7.78
  -4  -6  -2  297.01   26.01
  -4   6  -2  336.31   26.34
  -4  -6  -3   17.02    5.60
  -4   6  -3   14.82    6.07
  -4   6  -3   10.20   10.93
  -4  -6  -4   74.90   12.88
  -4   6  -4   70.11   12.57
  -4   6  -4   88.74   20.55
  -4  -6  -5   33.64   10.20
  -4   6  -5   27.61    9.01
  -4   6  -5   32.99   13.16
  -4   6  -6  509.84   38.60
  -4  -6  -6  445.16   37.24
  -4   6  -6  513.59   49.35
  -4  -6  -7    9.44    6.86
  -4   6  -7   11.03    7.37
  -4   6  -7   18.89    7.20
  -4   6  -8  303.11   36.59
  -4   6  -9   19.76   10.02
  -4   6 -10   12.23    9.38
  -4  -6 -10   29.18   13.16
  -4   6 -10   13.71    9.98
  -4   6 -10   14.97    8.53
   4  -6  11   17.93   11.78
   4   6  11   21.70    9.29
  -4   6 -11   10.40    6.29
  -4  -6 -11   13.20   11.44
   4   6  11    5.95    6.33
   4  -6  11    6.04    6.87
  -4   6 -11    8.58    8.27
  -4   6 -11    3.86    4.01
   4  -6  12  -13.76    9.58
  -4   6 -12    8.23    6.83
  -4  -6 -12   -8.73   11.38
   4   6  12    9.32    7.10
   4  -6  12    9.45    9.01
   4   6  12   -1.23    3.71
  -4   6 -12   -4.35    8.08
  -4   6 -12    6.55    9.28
   4   6  13   13.48    7.27
  -4  -6 -13    3.16    5.53
  -4   6 -13  -12.17    7.62
   4  -6  13   14.06    9.59
   4  -6  13   -6.37    6.82
   4   6  13    9.83    7.89
  -4   6 -13    5.71    6.15
  -4   6 -13    1.32    6.46
   4  -6  14  206.61   31.56
   4   6  14  170.86   25.99
   4  -6  14  235.97   35.18
   4   6  14  204.19   29.02
  -4  -6 -14  193.04   28.51
  -4   6 -14  180.03   27.93
  -4   6 -14  270.55   34.27
  -4   6 -14  226.93   30.05
   4   6  15    6.47    6.44
  -4   6 -15    7.39    5.14
  -4   6 -15    2.52    8.10
   4  -6  16   23.79   11.35
   4   6  16   15.19    8.55
  -4   6 -16   36.18   11.50
  -4   6 -16   15.40    9.76
   4  -6  17    4.17    6.58
   4   6  17   -3.23    3.97
  -4   6 -17    7.59    6.14
  -4   6 -17    3.26    4.76
   4  -6  18    7.36    5.34
   4   6  18   -3.33    3.80
  -4   6 -18    3.93    3.91
  -4   6 -18    3.86    5.20
   4  -6  19   -1.24    3.28
   4   6  19    5.33    3.33
  -4   6 -19    9.29    4.53
  -4   6 -19    4.13    2.76
   4  -6  20    5.48    3.02
   4   6  20    6.94    3.46
  -4   6 -20    0.45    2.34
  -4   6 -20    6.71    5.34
   4  -6  21    1.59    1.95
   4   6  21    1.42    1.81
  -4   6 -21    2.52    2.67
   4   7 -20   12.70    4.05
   4   7 -20   12.27    4.40
   4   7 -19    4.15    2.65
   4   7 -19    6.38    4.82
   4   7 -18   -3.24    3.89
   4   7 -17    7.81    3.47
   4  -7 -16   13.65    5.97
   4   7 -16   31.27    9.35
   4  -7 -15   68.07   14.45
   4   7 -15   72.49   15.63
   4   7 -15   59.84   12.80
   4   7 -14   56.63   14.62
   4   7 -14   51.79   13.63
   4   7 -13   37.06   13.22
   4   7 -13   39.45   12.40
   4   7 -13   31.84   10.14
  -4   7  13   39.79    9.93
   4   7 -12   37.57   12.68
   4   7 -12   73.36   16.07
   4   7 -12   50.04   15.88
  -4   7  12   58.50   11.97
   4   7 -11   12.55    8.24
  -4   7  11    6.63    3.06
   4   7 -11    7.01    6.49
   4   7 -11   19.47   10.67
  -4   7  10   81.99   14.24
  -4  -7  10   77.19   14.39
   4   7 -10   63.00   16.13
   4   7 -10   85.03   17.65
  -4  -7   9   13.89    5.78
  -4   7   9   13.19    5.18
   4   7  -9    2.32    3.62
   4   7  -9    0.94    3.83
   4   7  -9   -5.08    8.96
  -4  -7   8   53.97   11.33
  -4   7   8   59.62   11.31
  -4  -7   7  483.27   35.21
  -4   7   7  543.76   35.95
  -4   7   7  560.87   49.57
  -4  -7   6  463.27   34.48
  -4   7   6  495.83   34.10
  -4  -7   5   27.86    9.12
  -4   7   5   28.12    7.71
   4  -7  -5   39.40    9.81
   4   7  -5   34.42    9.86
  -4   7   5   34.72    9.13
  -4  -7   4   23.38    7.49
  -4   7   4   26.29    7.67
   4  -7  -4   19.96    5.95
   4   7  -4   11.49    5.89
  -4   7   4   16.82    7.38
  -4   7   3   68.39   11.39
  -4  -7   3   69.88   11.52
   4  -7  -3   43.04    8.78
   4   7  -3   72.94   12.86
  -4   7   3   45.64   10.25
  -4  -7   2 1530.64   61.30
  -4   7   2 1739.23   63.11
   4  -7  -2 1577.35   63.59
   4   7  -2 1793.57   69.16
  -4   7   2 1568.83   68.70
  -4   7   2 1532.08   66.97
  -4  -7   1  796.84   40.25
  -4   7   1  807.72   39.12
  -4   7   1  779.37   44.87
  -4   7   1  760.02   43.96
  -4  -7   0    4.04    3.02
  -4   7   0    5.47    4.41
  -4   7   0    3.85    4.35
  -4   7   0    0.75    3.10
  -4  -7  -1  826.47   41.92
  -4   7  -1  854.86   41.99
  -4  -7  -2 1623.90   63.36
  -4   7  -2 1586.18   61.40
  -4  -7  -3   43.30    9.51
  -4   7  -3   48.65    9.64
  -4   7  -3   55.36   15.30
  -4  -7  -4   15.49    6.05
  -4   7  -4   14.30    5.63
  -4  -7  -5   17.71    8.17
  -4   7  -5   21.79    7.97
  -4   7  -5   43.68   13.13
  -4  -7  -6  338.35   32.47
  -4   7  -6  346.53   32.58
  -4   7  -6  384.22   44.84
  -4   7  -7  371.24   42.02
  -4   7  -8   44.96   15.32
  -4   7  -9    1.51    7.86
  -4  -7  -9   22.95   10.96
  -4   7  -9   15.54    7.15
  -4   7  -9    6.25    6.45
  -4   7 -10   71.27   17.35
  -4   7 -10   95.14   19.03
  -4   7 -10   96.90   19.62
  -4   7 -11    4.37    5.39
   4   7  11    1.88    3.26
  -4   7 -11    1.34    5.21
  -4   7 -11   13.88    9.83
  -4   7 -12   44.99   11.58
   4   7  12   33.54    9.69
  -4   7 -12   45.67   13.19
  -4   7 -12   50.72   14.84
  -4   7 -13   23.95    8.49
   4   7  13   39.20   11.55
  -4   7 -13   39.34   10.92
  -4   7 -13   30.27   11.55
  -4   7 -13   31.46   13.13
   4  -7  14   38.54   12.92
   4   7  14   34.95   11.34
  -4   7 -14   51.23   13.36
  -4   7 -14   41.88   13.41
   4  -7  15   49.83   13.07
   4   7  15   54.24   12.48
  -4   7 -15   74.56   16.84
  -4   7 -15   81.90   17.73
   4  -7  16   24.34    9.35
   4   7  16   21.72    7.11
  -4   7 -16   26.76    9.85
  -4   7 -16   43.72   12.51
   4  -7  17    3.52    3.98
   4   7  17    1.27    3.07
  -4   7 -17   -4.48    5.18
  -4   7 -17   -3.08    3.90
   4  -7  18   -3.47    2.79
   4   7  18   -1.03    2.31
  -4   7 -18   -3.75    3.80
  -4   7 -18   -0.91    3.89
   4   7  19    9.25    3.68
   4  -7  19    8.32    4.17
  -4   7 -19    1.18    2.54
  -4   7 -19    3.13    3.37
   4   7  20    6.88    2.80
  -4   7 -20    2.53    3.07
   4   8 -20    2.43    2.30
   4   8 -19   20.25    5.37
   4   8 -18   16.22    5.02
   4   8 -17    7.13    5.85
   4   8 -17    6.88    5.01
   4   8 -16   12.18    9.15
   4   8 -16   13.37    7.02
   4   8 -15   71.25   14.12
   4   8 -15   82.60   14.76
   4   8 -15  111.93   17.86
   4   8 -15  108.83   19.41
   4   8 -14   47.17   12.14
   4   8 -14   28.56    9.56
   4   8 -14   58.60   14.33
  -4   8  13   39.97   10.61
   4   8 -13   40.69   11.47
   4   8 -13   32.41    9.84
   4   8 -13   43.02   12.98
   4   8 -12   25.16    9.90
   4   8 -12    8.32    4.68
   4   8 -11  190.47   29.98
   4   8 -11  161.00   23.89
  -4   8  10   59.86   12.78
   4   8 -10   51.54   13.66
   4   8 -10   47.93   11.96
   4   8 -10   47.85   17.49
  -4   8   9   96.58   16.45
   4   8  -9   65.17   18.97
   4   8  -9   77.41   17.19
   4   8  -9   77.43   14.94
  -4   8   8   29.42    8.28
   4   8  -8   18.49   11.63
   4   8  -8   27.84   10.95
   4   8  -8   24.90    8.74
  -4   8   7  499.04   37.83
  -4   8   7  573.23   50.74
  -4   8   6   81.73   14.42
  -4   8   6   45.05   15.39
  -4   8   5  247.54   25.02
  -4   8   5  249.56   33.99
   4   8  -4  230.92   24.17
  -4   8   4  255.02   25.37
  -4   8   4  207.46   31.39
   4   8  -3  854.28   44.64
  -4   8   3  801.18   46.98
  -4   8   3  891.04   66.58
   4   8  -2   27.53    6.85
  -4   8   2   15.46    6.83
  -4   8   2    8.21    5.09
  -4   8   2   26.49   12.17
   4   8  -1  527.98   30.59
  -4   8   1  483.83   35.51
  -4   8   1  412.42   32.96
  -4   8   1  426.42   45.52
  -4   8   0  504.27   35.68
  -4   8   0  436.18   45.71
  -4   8  -1  443.80   34.08
  -4   8  -2   11.84    7.58
  -4   8  -2   20.35   12.52
  -4   8  -3  794.08   39.42
  -4   8  -3  737.56   47.17
  -4   8  -3  726.15   62.12
  -4   8  -4  208.27   20.18
  -4   8  -4  186.49   30.93
  -4   8  -5  169.60   19.93
  -4   8  -5  160.23   29.09
  -4   8  -6   56.51   16.16
  -4   8  -7  417.49   44.37
  -4   8  -8   20.92   11.30
  -4   8  -8   20.23    8.83
  -4   8  -8   14.66    8.50
  -4   8  -9   74.05   15.84
  -4   8  -9   63.60   14.88
  -4   8  -9   37.11   12.18
  -4   8 -10   65.11   15.18
  -4   8 -10   41.32   12.40
  -4   8 -11  168.98   22.49
  -4   8 -11  168.03   25.28
  -4   8 -12   18.64    8.03
  -4   8 -12    1.25    6.73
  -4   8 -13   36.97   10.73
  -4   8 -13   52.40   13.73
  -4   8 -13   37.44   12.47
  -4   8 -14   31.40   10.53
  -4   8 -14   35.04   10.20
  -4   8 -15   81.21   16.03
  -4   8 -15  112.90   20.09
   4   8  16    3.89    2.68
   4   8  16    1.49    2.67
  -4   8 -16    6.72    4.60
  -4   8 -16    2.10    6.55
  -4   8 -17    0.84    2.97
  -4   8 -17    2.88    4.38
  -4   8 -18    3.50    5.02
  -4   8 -18   17.86    7.59
  -4   8 -19   19.99    6.19
  -4   8 -19    9.43    4.48
  -4   8 -20    4.08    3.71
  -4   8 -20    0.80    2.03
   4   9 -19    6.19    2.33
   4   9 -19   10.98    3.38
   4   9 -18    9.84    4.79
   4   9 -18    8.31    3.63
   4   9 -17   10.08    4.38
   4   9 -17    2.89    2.42
   4   9 -16    6.85    3.60
   4   9 -16    3.41    5.84
   4   9 -15    5.67    4.69
   4   9 -15    7.62    3.41
   4   9 -15   17.90    7.05
   4   9 -14   64.25   13.78
   4   9 -14   57.12   14.12
   4   9 -14   59.63   12.91
   4   9 -13    3.55    5.24
   4   9 -13    2.91    3.61
   4   9 -13    3.62    5.16
   4   9 -13   11.68    7.63
   4   9 -12   -2.11    6.07
   4   9 -12   -1.39    5.30
   4   9 -12   -3.25    3.64
   4   9 -12   -0.94    2.89
   4   9 -11  124.69   20.54
   4   9 -11  186.91   30.37
   4   9 -11  168.05   23.89
  -4   9  10   75.68   14.51
   4   9 -10   72.48   15.98
   4   9 -10   69.27   14.54
   4   9 -10   98.37   22.65
   4   9 -10   72.10   14.80
  -4   9   9    9.08    5.45
   4   9  -9    7.16    4.74
   4   9  -9    4.73    4.03
   4   9  -9    5.63    9.55
   4   9  -9    3.26    3.31
  -4   9   8   17.82    5.75
   4   9  -8    9.63    9.15
   4   9  -8    8.40    3.53
   4   9  -8   17.76    6.73
   4   9  -8   22.20   10.57
   4   9  -8   24.70    9.27
  -4   9   7   11.38    6.40
   4   9  -7   -5.69    6.02
   4   9  -7   14.36    6.53
   4   9  -7   11.09    6.21
   4   9  -7    7.52    5.15
  -4   9   6  124.05   17.91
   4   9  -6  107.00   19.84
   4   9  -6  116.76   18.17
  -4   9   6  116.47   22.81
   4   9  -6  107.36   21.32
  -4   9   5  175.69   21.59
  -4   9   5  175.67   29.65
  -4   9   4   79.70   14.59
  -4   9   4   80.56   19.65
  -4   9   3  449.68   35.67
  -4   9   3  404.91   45.52
  -4   9   2  209.26   23.61
  -4   9   2  205.75   32.77
  -4   9   1   -1.67    3.87
  -4   9   1    4.90    8.84
  -4   9   0   75.31   13.75
  -4   9   0   38.94   16.08
  -4   9  -1   10.45    5.41
  -4   9  -2  236.66   24.83
  -4   9  -2  188.30   30.63
  -4   9  -3  391.32   33.04
  -4   9  -3  374.95   44.73
  -4   9  -4   67.58   13.56
  -4   9  -4   47.30   16.30
  -4   9  -5  151.72   28.29
  -4   9  -5  145.89   20.69
  -4   9  -6  125.63   23.62
  -4   9  -6  128.68   20.15
  -4   9  -6  132.13   21.58
   4   9   6  118.83   18.90
  -4   9  -6   97.09   18.12
  -4   9  -7   20.09    7.33
  -4   9  -7   12.35    8.05
   4   9   7   16.89    6.64
  -4   9  -7   17.11    7.93
  -4   9  -8   10.33    4.85
  -4   9  -8   15.99    8.91
   4   9   8   32.13   10.45
  -4   9  -8   37.23   12.19
  -4   9  -9    8.21    3.65
  -4   9  -9   10.87    7.55
   4   9   9    9.58    4.78
  -4   9  -9    1.20    7.37
  -4   9  -9   20.02   10.10
  -4   9 -10   93.26   17.98
   4   9  10   78.88   17.01
  -4   9 -10   68.94   15.95
  -4   9 -10   58.81   15.69
  -4   9 -11  147.50   21.30
   4   9  11  157.44   23.92
  -4   9 -11  144.56   23.25
  -4   9 -11  165.44   23.13
  -4   9 -11  144.10   22.33
  -4   9 -11  181.99   22.47
  -4   9 -12    1.90    5.13
   4   9  12    4.78    3.88
  -4   9 -12    7.05    8.81
  -4   9 -12   -4.49    7.60
   4   9  13    2.23    5.24
  -4   9 -13   -1.13    3.20
   4   9  14   66.29   14.32
  -4   9 -14   63.19   14.62
   4   9  15    4.15    3.84
  -4   9 -15    0.99    5.17
   4   9  16    2.65    2.71
  -4   9 -16   -0.88    2.98
   4   9  17   -1.53    2.87
  -4   9 -17    6.16    4.29
  -4   9 -17   -0.88    4.70
  -4   9 -18    6.44    2.62
  -4   9 -18   17.04    7.38
  -4   9 -19    9.11    3.47
  -4   9 -19   19.58    6.88
   4  10 -19    4.31    2.34
   4  10 -19   -0.86    1.52
   4  10 -18   18.20    5.13
   4  10 -18   16.35    4.11
   4  10 -17   -0.56    3.16
   4  10 -17    4.55    2.20
   4  10 -16    4.72    2.90
   4  10 -16   -1.52    1.57
   4  10 -15    6.01    4.19
  -4  10  15    0.81    5.38
   4  10 -15    4.68    3.35
   4  10 -15    4.71    3.53
   4  10 -14    2.79    4.25
   4  10 -14    7.90    5.00
   4  10 -14   -2.61    4.23
   4  10 -13    4.55    5.79
   4  10 -13   11.28    6.50
   4  10 -13   16.77    7.89
   4  10 -12   37.24   11.19
   4  10 -12   60.18   16.06
   4  10 -12   38.88   10.99
   4  10 -11   66.45   17.61
   4  10 -11   74.35   16.07
   4  10 -11   76.08   14.89
  -4  10  10  141.41   19.46
   4  10 -10  141.02   19.63
   4  10 -10  190.02   32.45
   4  10 -10  155.79   23.65
   4  10 -10  161.15   22.31
  -4  10   9    6.32    4.95
   4  10  -9    4.84    5.68
   4  10  -9    9.38    7.10
   4  10  -9    9.28    8.64
   4  10  -9   -4.10    4.74
  -4  10   8   31.98    9.48
   4  10  -8   29.67   10.67
   4  10  -8   38.32   10.50
   4  10  -8   26.79    8.50
   4  10  -8   16.92    9.87
   4  10  -8   32.37    9.87
  -4  10   7   78.97   14.39
   4  10  -7   78.02   14.62
   4  10  -7   95.96   18.67
   4  10  -7   74.72   17.97
  -4  10   6   29.17    7.54
  -4  10   6   40.78   15.94
   4  10  -6   25.83    8.37
   4  10  -6   21.46   10.19
  -4  10   5    2.69    4.15
   4  10  -5   -1.70    9.49
   4  10  -5    4.59    4.67
   4  10  -5    9.41    6.84
  -4  10   5    7.61    9.78
  -4  10   4  332.01   30.51
   4  10  -4  306.35   37.25
   4  10  -4  255.84   27.31
  -4  10   4  273.07   36.19
   4  10  -4  236.35   35.36
  -4  10   3   40.79   10.67
   4  10  -3   48.06   13.60
   4  10  -3   26.13   11.35
  -4  10   3   20.00    9.85
   4  10  -2  115.78   24.32
  -4  10   2  147.27   27.58
  -4  10   1    7.75    4.73
  -4  10   1    8.32    8.34
  -4  10   0   44.37   10.18
  -4  10   0   21.36   10.28
  -4  10  -1    3.53    3.55
  -4  10  -2  149.26   20.16
   4  10   2  164.93   22.60
  -4  10  -3   29.31    8.10
  -4  10  -3   45.77   16.42
   4  10   3   38.67   10.75
  -4  10  -3   18.55    7.71
  -4  10  -4  271.58   28.17
  -4  10  -4  289.24   31.22
   4  10   4  290.90   30.53
  -4  10  -4  290.72   36.36
  -4  10  -4  262.91   30.67
  -4  10  -5    1.00    3.73
  -4  10  -5    1.52    6.51
   4  10   5   12.57    6.94
  -4  10  -5   11.89    7.80
  -4  10  -5    9.16    7.86
  -4  10  -6   36.71   11.60
  -4  10  -6   36.00   14.19
   4  10   6   49.23   12.26
  -4  10  -6   41.44   13.53
  -4  10  -6   44.83   12.53
  -4  10  -7   83.37   19.75
  -4  10  -7   87.62   16.57
   4  10   7   93.14   17.04
  -4  10  -7   67.58   15.76
  -4  10  -7   80.26   16.69
  -4  10  -8   33.95   11.31
  -4  10  -8   51.25   15.31
   4  10   8   37.65   11.18
  -4  10  -8   38.57   11.50
  -4  10  -9   10.14    6.66
  -4  10  -9   -2.28    4.65
   4  10   9    4.39    2.97
  -4  10  -9   16.32    8.20
  -4  10  -9   14.66   11.46
   4  10  10  164.36   23.35
  -4  10 -10  149.74   23.74
  -4  10 -10  141.29   22.31
  -4  10 -10  140.65   21.09
  -4  10 -10  161.89   22.21
  -4  10 -11   73.26   14.44
   4  10  11   82.41   16.32
  -4  10 -11   54.69   13.51
  -4  10 -11   69.64   14.19
  -4  10 -11   59.49   14.90
   4  10  12   36.62   10.79
  -4  10 -12   36.20   11.42
  -4  10 -12   50.11   13.70
  -4  10 -12   39.59   10.29
   4  10  13    9.70    3.50
  -4  10 -13    5.22    3.46
  -4  10 -13   16.54    8.57
   4  10  14   -3.42    5.12
  -4  10 -14    6.83    6.05
  -4  10 -14    1.03    4.14
   4  10  15    5.74    2.76
  -4  10 -15    4.50    5.17
   4  10  16    2.87    2.85
  -4  10 -16   -0.80    5.06
   4  10  17   -2.65    4.03
  -4  10 -17   -1.39    4.74
   4  10  18   15.42    3.98
  -4  10 -18   31.88    7.35
  -4  10 -19   -1.79    2.97
   4  11 -18    6.83    2.51
   4  11 -17   11.79    3.90
   4  11 -16    0.52    2.07
  -4  11  15    8.96    4.14
   4  11 -15    0.61    2.96
   4  11 -14    5.88    4.92
  -4  11  14    4.76    3.93
   4  11 -14    6.90    3.99
   4  11 -13   -1.03    6.54
  -4  11  13    2.66    3.71
   4  11 -13    5.34    4.42
   4  11 -12    2.83    3.76
   4  11 -12    4.14    2.85
   4  11 -11   86.78   16.98
   4  11 -11   94.40   20.55
   4  11 -11   85.80   15.31
   4  11 -10   69.67   14.19
   4  11 -10   70.45   16.03
   4  11 -10   75.44   18.70
   4  11 -10   63.58   12.99
  -4  11   9   32.44    9.06
   4  11  -9   31.80    9.02
   4  11  -9   21.70    9.23
   4  11  -9   24.27   12.50
   4  11  -9   40.40   11.56
  -4  11   8    4.52    2.76
   4  11  -8    5.00    5.77
   4  11  -8   11.62    6.40
   4  11  -8    3.51    6.43
  -4  11   7   31.35    8.92
   4  11  -7   28.80    9.43
   4  11  -7   37.12   13.10
  -4  11   6  172.84   21.78
  -4  11   6  147.06   22.78
   4  11  -6  178.25   21.72
   4  11  -6  178.07   31.52
   4  11  -6  129.93   23.62
  -4  11   5  118.15   18.59
  -4  11   5  100.48   19.60
   4  11  -5   84.93   20.90
   4  11  -5  120.23   20.90
   4  11  -5  111.28   17.83
   4  11  -5   96.04   22.00
  -4  11   4    7.21    7.03
   4  11  -4   -7.75    7.60
   4  11  -4   -2.49    5.83
   4  11  -4    0.93    3.63
   4  11  -4    3.36    6.89
   4  11  -3  235.58   29.09
   4  11  -3  181.24   27.92
  -4  11   3  251.88   28.01
   4  11  -3  204.12   24.07
  -4  11   3  299.03   37.84
   4  11  -2  310.77   32.98
  -4  11   2  274.78   29.45
   4  11  -2  210.62   29.81
   4  11  -2  250.00   35.69
  -4  11   2  270.20   34.54
  -4  11   1    9.27    6.41
   4  11  -1   -6.43    8.09
  -4  11   1    7.51    7.33
   4  11  -1   13.78    7.99
   4  11  -1    1.55    5.13
  -4  11   1    7.96    4.28
  -4  11   1    5.21    4.42
  -4  11   0   22.79   11.04
  -4  11   0    8.90    6.35
   4  11   0    9.93    5.92
  -4  11   0    6.27    6.90
   4  11   0    6.24    4.76
   4  11   0   13.32    8.05
   4  11   0   -4.25    8.78
  -4  11   0   18.40    7.82
  -4  11   0    7.57    4.34
  -4  11  -1   10.71    4.73
  -4  11  -1   -1.02    4.13
   4  11   1    6.09    3.37
   4  11   1    5.37    5.18
   4  11   1    9.84    8.30
   4  11   1    7.25    5.47
   4  11   1   19.25    9.12
  -4  11  -1    0.95    3.67
  -4  11  -1   -4.47    8.22
  -4  11  -2  264.85   26.73
   4  11   2  287.91   29.91
  -4  11  -2  195.15   23.81
   4  11   2  286.37   35.36
  -4  11  -2  246.52   27.51
   4  11   2  304.02   31.06
   4  11   2  213.20   28.36
  -4  11  -2  248.67   29.37
  -4  11  -3  187.01   23.20
   4  11   3  277.70   29.21
  -4  11  -3  196.08   23.80
   4  11   3  204.27   25.05
   4  11   3  235.87   33.19
  -4  11  -3  223.54   25.59
  -4  11  -3  231.00   28.45
  -4  11  -3  190.28   28.61
  -4  11  -4    1.44    7.58
  -4  11  -4    9.68    6.11
  -4  11  -4    6.39    3.89
   4  11   4    6.15    4.95
  -4  11  -4    6.18    5.26
  -4  11  -4    8.21    6.03
  -4  11  -5   97.79   22.07
  -4  11  -5  102.22   17.62
   4  11   5   99.73   17.64
  -4  11  -5  111.08   19.33
  -4  11  -5   97.36   18.45
  -4  11  -6  171.03   26.13
  -4  11  -6  148.30   20.69
  -4  11  -6  162.23   23.36
   4  11   6  140.68   21.07
  -4  11  -6  157.62   23.97
  -4  11  -7   13.32    6.47
  -4  11  -7   32.42   10.59
   4  11   7   28.42   10.88
  -4  11  -7   25.90    9.33
  -4  11  -7   51.72   16.66
  -4  11  -7   31.93   10.69
  -4  11  -8   -6.10    5.21
  -4  11  -8    2.31    5.00
   4  11   8   -3.06    5.36
  -4  11  -8    3.52    3.78
  -4  11  -8    4.84    5.53
  -4  11  -8    8.54    5.82
  -4  11  -9   30.71    8.42
  -4  11  -9   20.08    8.73
   4  11   9   21.89    8.26
  -4  11  -9   17.29    9.37
  -4  11  -9   30.87   10.56
  -4  11  -9   24.69   11.18
  -4  11 -10   63.62   13.61
   4  11  10   72.26   13.92
  -4  11 -10   71.34   15.53
  -4  11 -10   89.24   17.89
  -4  11 -11   78.84   14.28
   4  11  11   74.11   14.27
  -4  11 -11   78.52   13.87
  -4  11 -11   83.57   17.47
   4  11  12    1.81    2.64
  -4  11 -12    8.13    4.39
  -4  11 -12   -1.50    4.71
  -4  11 -12   10.01    7.94
   4  11  13   -0.83    4.07
  -4  11 -13    2.85    5.52
  -4  11 -13    5.16    5.98
   4  11  14   12.31    5.11
  -4  11 -14   -2.63    3.48
  -4  11 -14    7.54    4.16
   4  11  15    8.47    3.92
  -4  11 -15    2.40    3.76
  -4  11 -15   15.37    7.54
   4  11  16    0.49    1.59
  -4  11 -16    0.71    2.82
  -4  11 -16    5.33    5.43
   4  11  17    5.23    3.09
  -4  11 -17    7.96    3.53
   4  11  18    5.88    2.14
  -4  11 -18    5.36    2.63
  -4  11 -18   12.08    5.11
   4  12 -17   -0.90    1.57
   4  12 -16   -4.17    2.62
  -4  12  15    4.41    3.09
   4  12 -15   -3.20    3.07
  -4  12  14    5.37    3.34
   4  12 -14   -0.72    4.13
   4  12 -14   10.62    4.44
  -4  12  13   10.82    6.00
   4  12 -13   -4.46    4.09
   4  12 -13    8.97    4.32
   4  12 -12   15.38    5.39
   4  12 -12   11.77    5.37
  -4  12  12   12.14    6.61
   4  12 -12   12.49    4.74
   4  12 -11    0.97    4.36
  -4  12  11    1.91    4.95
   4  12 -11    2.49    5.20
   4  12 -11    5.63    3.29
   4  12 -10   38.54   12.11
  -4  12  10   26.69    8.40
   4  12 -10   56.10   15.21
   4  12 -10   46.56   10.23
   4  12  -9   23.81    8.30
  -4  12   9    6.48    5.56
   4  12  -8   -2.53    4.09
   4  12  -8   -3.34    4.33
   4  12  -7    0.86    3.52
   4  12  -7   11.30    8.36
   4  12  -7   -2.45    6.32
  -4  12   6    9.40    6.83
   4  12  -6    2.54    3.56
   4  12  -6    8.79    5.22
   4  12  -6    3.20    4.21
   4  12  -6    4.07    6.57
  -4  12   5   -8.07    7.49
   4  12  -5    5.05    4.35
  -4  12   5    4.42    4.93
   4  12  -5   16.11    6.84
   4  12  -5    4.60    7.35
   4  12  -5   12.01   10.49
   4  12  -4  260.85   30.78
   4  12  -4  247.27   26.30
   4  12  -4  194.14   29.48
  -4  12   4  266.45   29.58
   4  12  -4  197.88   30.31
  -4  12   4  275.28   32.43
  -4  12   3   25.51   12.01
   4  12  -3   11.17    8.65
   4  12  -3    6.00    3.62
  -4  12   3    9.64    5.88
   4  12  -3    4.70    3.35
  -4  12   3   13.74    8.18
  -4  12   2   40.04   12.75
  -4  12   2   34.02   10.92
   4  12  -2   40.51   11.66
   4  12  -2   47.45   12.44
   4  12  -2   26.95   10.83
   4  12  -2   43.44   17.23
  -4  12   2   46.45   13.95
  -4  12   1   11.15    7.70
   4  12  -1   11.85    9.12
  -4  12   1    8.53    5.71
   4  12  -1   16.75    8.42
  -4  12   1   11.68    5.80
   4  12  -1   -1.52   11.12
  -4  12   1   14.26    9.65
  -4  12   0   16.64    7.77
  -4  12   0   20.87    7.41
   4  12   0    7.78    4.66
   4  12   0   18.29    7.84
   4  12   0   16.69   10.62
  -4  12   0   13.91    6.52
  -4  12   0   35.57   10.46
  -4  12   0   17.56    8.37
  -4  12  -1   16.43   11.24
  -4  12  -1   13.45    6.02
   4  12   1   25.65   11.41
   4  12   1   -4.16    6.92
  -4  12  -1   14.18    7.81
   4  12   1   12.59    4.75
  -4  12  -1    8.98    3.94
  -4  12  -1   15.05   10.76
  -4  12  -1    2.98    4.66
  -4  12  -2   41.69   11.78
   4  12   2   43.32   11.46
   4  12   2   35.91   10.80
  -4  12  -2   39.38   10.89
   4  12   2   58.52   17.16
   4  12   2   29.86   11.81
  -4  12  -2   41.84   10.93
  -4  12  -2   38.09   11.97
  -4  12  -2   31.60    9.61
  -4  12  -3   -0.93    5.09
  -4  12  -3    8.52    5.88
   4  12   3    6.63    2.69
   4  12   3   10.05    4.71
   4  12   3   14.23    7.63
  -4  12  -3   14.41    6.88
  -4  12  -3   19.98    8.93
  -4  12  -3   10.50    6.07
  -4  12  -4  215.39   24.51
   4  12   4  276.61   27.35
  -4  12  -4  234.40   26.11
   4  12   4  246.95   32.48
  -4  12  -4  237.62   25.25
   4  12   4  237.79   26.70
  -4  12  -4  234.24   27.52
  -4  12  -4  259.50   30.97
  -4  12  -4  252.40   31.54
  -4  12  -5    5.82    3.16
  -4  12  -5    8.99    6.53
   4  12   5   15.74    6.37
  -4  12  -5    2.49    3.46
   4  12   5    7.95    4.64
  -4  12  -5    6.89    3.18
  -4  12  -5   -1.13    4.52
  -4  12  -6    7.35    6.55
  -4  12  -6    7.87    5.55
   4  12   6    5.93    3.05
   4  12   6    0.99    5.12
  -4  12  -6  -11.92    7.20
  -4  12  -6   13.71    7.49
  -4  12  -6    4.56    4.11
  -4  12  -7    1.14    7.74
  -4  12  -7    2.93    4.65
   4  12   7   -1.94    3.72
  -4  12  -7    9.15    6.72
  -4  12  -7    1.14    4.01
  -4  12  -7    1.12    4.13
  -4  12  -8   -3.17    4.88
   4  12   8    6.48    5.45
  -4  12  -8    5.67    6.16
  -4  12  -8    1.16    4.56
  -4  12  -8   -4.34    6.64
  -4  12  -9   10.58    5.33
   4  12   9    9.81    5.29
  -4  12  -9    5.52    6.65
  -4  12  -9   14.78    6.60
  -4  12  -9   22.37    9.82
  -4  12 -10   46.82   10.55
   4  12  10   37.02   10.06
  -4  12 -10   53.90   11.90
  -4  12 -10   42.27   11.62
  -4  12 -10   40.67   10.79
  -4  12 -11   -1.53    4.81
   4  12  11   -3.29    4.69
  -4  12 -11   -3.11    4.37
  -4  12 -11    2.21    4.34
  -4  12 -12    9.87    5.11
   4  12  12   11.53    4.11
  -4  12 -12    3.33    3.31
   4  12  13    4.16    3.57
  -4  12 -13    4.36    3.87
  -4  12 -13   -2.80    4.86
   4  12  14    3.01    2.12
  -4  12 -14    0.77    3.72
  -4  12 -14    5.82    3.78
   4  12  15    2.00    3.16
  -4  12 -15    2.08    3.37
  -4  12 -15    2.18    3.71
   4  12  16    2.00    2.50
  -4  12 -16    4.27    3.83
  -4  12 -16    0.62    2.63
   4  12  17    0.61    1.08
  -4  12 -17    2.03    2.91
  -4  12 -17    4.15    2.79
   4  13 -16   10.53    2.98
   4  13 -15    0.97    1.49
  -4  13  14    5.30    4.37
   4  13 -14    5.44    3.02
   4  13 -13    1.46    3.65
  -4  13  13    1.92    3.06
   4  13 -13    1.34    2.58
   4  13 -12   11.40    6.12
  -4  13  12    7.45    5.27
   4  13 -12    9.43    3.92
  -4  13  11   40.39   10.06
   4  13 -11   26.59    8.41
   4  13 -11   26.32    8.47
   4  13 -11   26.76    6.13
  -4  13  10    8.32    6.14
  -4  13   9   18.84    8.28
   4  13  -9   14.14    5.73
   4  13  -8    1.13    4.58
   4  13  -8   -1.33    8.12
  -4  13   8    7.26    5.56
   4  13  -8   10.92    4.94
   4  13  -7   16.59    9.12
  -4  13   7    9.55    6.79
   4  13  -7    6.47    4.52
   4  13  -7    5.50    7.02
   4  13  -7    6.87    6.35
  -4  13   6   48.79   11.21
   4  13  -6   28.39    9.02
   4  13  -6   42.32   12.40
  -4  13   6   37.42   11.94
   4  13  -6   28.74   10.49
   4  13  -6   25.53    8.31
  -4  13   5   39.89   10.92
  -4  13   5   40.49   12.26
   4  13  -5   62.71   15.41
   4  13  -5   48.13   11.18
   4  13  -5   41.74   13.46
   4  13  -5   82.51   19.84
  -4  13   4   11.77    7.41
   4  13  -4    1.18    4.30
   4  13  -4   12.40    5.44
   4  13  -4    1.32    4.87
  -4  13   4   12.19    6.59
   4  13  -3  216.68   27.32
   4  13  -3  159.09   21.58
   4  13  -3  167.11   25.48
  -4  13   3  196.51   23.91
  -4  13   3  179.03   24.31
  -4  13   2   77.12   17.35
  -4  13   2   44.51   11.55
   4  13  -2   58.47   14.02
   4  13  -2   67.78   14.22
   4  13  -2   37.57   12.49
   4  13  -2   66.05   17.47
  -4  13   2   77.15   16.40
  -4  13   1   13.51    9.16
   4  13  -1    2.12    3.20
   4  13  -1    3.88    3.91
  -4  13   1    5.16    6.30
   4  13  -1    6.46    5.56
   4  13  -1   -2.92    8.61
  -4  13   1   -3.41    4.81
  -4  13   0    4.92    6.54
   4  13   0    7.11    6.22
  -4  13   0   -3.03    4.45
   4  13   0   16.74    8.46
   4  13   0   -9.44    9.79
  -4  13   0   -9.49    8.24
  -4  13  -1    1.22    3.89
   4  13   1    8.71    6.95
  -4  13  -1    0.97    4.33
   4  13   1   -6.13    7.02
  -4  13  -1   -3.38    4.39
  -4  13  -1    3.61    7.46
  -4  13  -1    0.87    4.09
  -4  13  -2   58.75   12.77
  -4  13  -2   62.70   12.89
   4  13   2   69.63   13.89
  -4  13  -2   72.11   16.43
  -4  13  -2   50.56   11.36
  -4  13  -2   57.14   12.49
  -4  13  -3  155.12   20.65
   4  13   3  187.84   22.12
  -4  13  -3  115.92   17.19
  -4  13  -3  164.67   21.14
   4  13   3  175.15   22.29
  -4  13  -3  233.62   28.42
  -4  13  -3  160.66   21.25
  -4  13  -4    4.59    5.51
  -4  13  -4   -0.92    5.05
  -4  13  -4    2.52    3.46
   4  13   4   11.72    6.06
   4  13   4    2.88    3.10
  -4  13  -4    5.07    4.25
  -4  13  -4    2.92    3.75
  -4  13  -4   -5.73    6.06
  -4  13  -5   49.38   12.58
  -4  13  -5   30.89    9.87
  -4  13  -5   45.87   11.00
   4  13   5   54.87   11.60
   4  13   5   41.42   10.93
  -4  13  -5   34.37    9.21
  -4  13  -5   40.77   11.49
  -4  13  -6   38.32   11.92
   4  13   6   46.57   10.72
   4  13   6   45.36   10.75
  -4  13  -6   18.86    8.55
  -4  13  -6   37.49    9.99
  -4  13  -6   31.87   10.33
  -4  13  -7    7.16    5.50
   4  13   7   13.40    5.27
   4  13   7    7.02    5.65
  -4  13  -7   15.86    6.82
  -4  13  -7    8.98    4.26
  -4  13  -7   12.97    6.76
  -4  13  -8    6.60    6.98
   4  13   8    9.13    2.36
  -4  13  -8    9.36    5.46
  -4  13  -8   15.72    7.57
  -4  13  -8   11.75    6.65
  -4  13  -9   10.31    6.91
   4  13   9   11.05    5.23
  -4  13  -9   20.64    8.61
  -4  13  -9    7.79    6.28
  -4  13  -9   15.00    7.67
  -4  13 -10    6.16    3.81
   4  13  10    9.74    5.12
  -4  13 -10    1.95    4.94
  -4  13 -10   -0.78    5.53
  -4  13 -10    1.06    5.45
  -4  13 -11   25.00    6.90
   4  13  11   26.02    7.61
  -4  13 -11   27.98    8.64
  -4  13 -11   41.85   11.63
  -4  13 -11   34.66    8.43
  -4  13 -12   11.50    5.22
   4  13  12    8.40    4.28
  -4  13 -12   19.72    7.16
  -4  13 -12    9.21    5.28
  -4  13 -12    7.26    4.81
   4  13  13    0.57    2.42
  -4  13 -13    6.49    4.06
  -4  13 -13   -0.79    2.67
   4  13  14    0.49    2.59
  -4  13 -14    1.35    2.66
   4  13  15    0.41    1.75
  -4  13 -15    6.70    2.80
   4  13  16    7.71    3.18
  -4  13 -16   13.92    4.53
  -4  13 -16   19.42    5.47
  -4  14  15    7.88    1.96
  -4  14  14    3.00    2.48
  -4  14  14   -0.83    1.04
  -4  14  13   22.99    6.04
  -4  14  12   49.69    9.47
   4  14 -12   31.86    8.03
   4  14 -11   34.06    9.69
  -4  14  11   57.52   11.42
  -4  14  10   55.37   11.56
   4  14  -9   20.75    7.90
   4  14  -9   15.51    5.28
   4  14  -9   17.11    7.56
  -4  14   9   18.27    6.95
   4  14  -8    8.85    6.72
  -4  14   8    5.58    4.82
   4  14  -8    7.62    5.30
   4  14  -8    7.42    4.80
  -4  14   7   97.68   17.31
   4  14  -7   76.65   16.47
   4  14  -7  104.45   17.90
   4  14  -7  107.42   15.37
   4  14  -6    2.16    3.45
   4  14  -6    1.12    5.91
   4  14  -6    3.06    3.51
  -4  14   6    6.91    5.10
   4  14  -6    9.25    4.33
  -4  14   5   26.52    7.97
   4  14  -5   19.21    8.51
   4  14  -5   43.55   12.66
   4  14  -5   39.75   10.30
  -4  14   5   38.70   12.25
   4  14  -5   17.70    6.72
   4  14  -4  196.21   22.36
   4  14  -4  162.23   23.69
   4  14  -4  205.53   25.70
  -4  14   4  185.98   21.36
  -4  14   4  171.66   21.94
  -4  14   3   78.74   15.05
   4  14  -3   55.57   13.29
   4  14  -3   76.85   13.72
   4  14  -3   83.12   17.14
   4  14  -3   75.76   18.04
  -4  14   3   61.09   12.51
  -4  14   2   64.95   14.23
  -4  14   2   49.37   12.45
   4  14  -2   63.75   13.87
   4  14  -2   54.64   11.91
   4  14  -2   52.53   14.28
   4  14  -2  102.98   20.86
  -4  14   2   75.36   14.31
  -4  14   1   79.63   15.79
  -4  14   1   77.59   14.61
   4  14  -1   80.57   15.33
   4  14  -1   76.10   14.56
   4  14  -1   90.27   18.00
   4  14  -1   92.41   19.97
  -4  14   1   72.07   15.37
  -4  14   0   -1.07    5.23
   4  14   0    4.61    3.00
   4  14   0    2.75    4.35
  -4  14   0   -0.94    4.10
   4  14   0   -2.31    3.94
   4  14   0   -1.27    5.54
  -4  14   0    3.08    6.69
  -4  14  -1   88.53   16.30
   4  14   1   96.07   15.65
  -4  14  -1   80.07   15.06
  -4  14  -1   97.43   17.66
  -4  14  -2   64.89   13.11
   4  14   2   58.31   11.92
  -4  14  -2   76.50   15.74
  -4  14  -2   53.00   11.01
  -4  14  -3   79.33   14.23
   4  14   3   76.77   13.13
  -4  14  -3   66.01   12.21
  -4  14  -3   48.13   10.81
  -4  14  -3   89.58   16.43
   4  14   4  192.90   20.73
  -4  14  -4  158.77   19.08
   4  14   4  209.98   23.55
  -4  14  -4  150.18   18.51
  -4  14  -4  189.40   23.60
  -4  14  -4  154.90   19.70
  -4  14  -4  161.65   22.41
  -4  14  -5   29.79   10.31
   4  14   5   35.91    8.71
   4  14   5   52.35   12.03
  -4  14  -5   25.23    7.76
  -4  14  -5   27.36    7.93
  -4  14  -5   29.43    9.18
  -4  14  -6    9.37    6.92
   4  14   6   21.20    7.22
   4  14   6    4.12    3.04
  -4  14  -6   16.37    6.63
  -4  14  -6    5.60    4.72
  -4  14  -7   81.84   14.96
  -4  14  -7  112.49   16.81
   4  14   7   93.08   14.78
  -4  14  -7   57.13   12.42
  -4  14  -7   98.91   16.66
  -4  14  -8    8.95    5.68
   4  14   8    5.13    3.16
  -4  14  -8    4.80    3.78
  -4  14  -8    1.78    2.46
  -4  14  -9   16.30    6.38
   4  14   9   17.20    5.39
  -4  14  -9   21.34    7.85
  -4  14  -9   24.98    8.00
  -4  14  -9   32.40    9.45
  -4  14 -10   25.11    7.91
   4  14  10   39.17    8.72
  -4  14 -10   35.39    7.96
  -4  14 -10   41.98   10.18
  -4  14 -10   51.16   11.70
  -4  14 -11   35.57    7.99
   4  14  11   30.81    7.42
  -4  14 -11   45.03    8.74
  -4  14 -11   53.97   11.40
  -4  14 -11   42.64   10.22
  -4  14 -12   53.97    9.17
   4  14  12   45.50    8.86
  -4  14 -12   43.96    7.96
  -4  14 -12   37.13    8.87
  -4  14 -12   47.82   10.31
   4  14  13   11.24    4.12
  -4  14 -13   12.67    4.13
  -4  14 -13   12.81    4.20
  -4  14 -13    8.61    4.52
   4  14  14   -3.56    2.52
  -4  14 -14    2.39    1.46
  -4  14 -14    2.66    3.31
   4  14  15   18.28    4.21
  -4  14 -15   26.15    5.41
  -4  15  14    7.00    1.98
  -4  15  13   17.78    4.44
  -4  15  13    8.85    2.29
  -4  15  12    3.08    3.64
  -4  15  12   -0.73    1.34
  -4  15  11  115.11   13.83
   4  15 -10   21.84    7.09
   4  15 -10   22.60    6.67
  -4  15  10   35.52    8.56
   4  15  -9   13.46    6.19
   4  15  -9   25.84    7.82
  -4  15   9   31.51    8.61
   4  15  -8   10.21    4.58
   4  15  -8   17.98    5.54
   4  15  -8   19.73    7.50
  -4  15   8   11.01    5.92
   4  15  -7   25.47    8.27
  -4  15   7   18.35    8.73
   4  15  -7   26.24    7.58
   4  15  -7   23.32    8.34
   4  15  -6   37.37    9.75
   4  15  -6   49.14   11.64
   4  15  -6   52.40   10.21
  -4  15   6   50.11   11.35
   4  15  -5  132.03   16.31
   4  15  -5   96.30   16.35
   4  15  -5  109.82   17.42
  -4  15   5  101.03   16.59
  -4  15   5   98.55   13.89
  -4  15   4   18.75    6.96
   4  15  -4    8.35    5.00
   4  15  -4   12.86    6.74
   4  15  -4   18.98    6.41
  -4  15   4    6.95    4.27
   4  15  -3  211.85   23.85
   4  15  -3  202.36   21.33
   4  15  -3  201.29   24.26
   4  15  -3  192.57   26.14
  -4  15   3  199.05   21.07
  -4  15   3  211.43   22.64
  -4  15   2   23.84    8.25
   4  15  -2   35.92    9.93
  -4  15   2   44.78   11.26
   4  15  -2   31.70   10.12
   4  15  -2   41.73   10.21
   4  15  -2   37.94   13.57
  -4  15   2   24.80    7.00
  -4  15   1   38.19   10.79
   4  15  -1   44.24   10.82
  -4  15   1   54.25   12.75
   4  15  -1   39.62    9.60
   4  15  -1   29.34    8.89
  -4  15   1   56.81   12.33
  -4  15   0   47.96   12.15
   4  15   0   46.03   10.35
  -4  15   0   27.54    8.24
   4  15   0   43.65   11.17
  -4  15   0   34.43    9.67
  -4  15  -1   44.35   10.53
  -4  15  -1   45.36   10.15
   4  15   1   31.68    7.98
   4  15   1   48.11   10.31
  -4  15  -1   51.27   13.05
  -4  15  -2   42.80   11.10
  -4  15  -2   37.58    8.71
   4  15   2   50.26   10.31
  -4  15  -2   43.25   11.46
   4  15   3  196.32   20.03
  -4  15  -3  182.03   19.78
  -4  15  -3  208.04   23.79
  -4  15  -3  153.94   17.85
  -4  15  -4    3.36    3.06
   4  15   4   22.12    6.62
  -4  15  -4   15.21    5.61
  -4  15  -4   17.11    6.21
  -4  15  -4    5.70    3.26
   4  15   5  110.21   15.83
  -4  15  -5  115.77   14.35
  -4  15  -5  101.93   16.10
  -4  15  -5  104.13   15.54
  -4  15  -6   41.89   10.29
  -4  15  -6   30.36    7.38
   4  15   6   52.44   11.01
  -4  15  -6   38.56    8.60
  -4  15  -6   33.22    8.94
  -4  15  -7   21.29    7.32
   4  15   7   10.09    3.72
  -4  15  -7    9.36    3.77
  -4  15  -7   25.11    7.40
  -4  15  -7   36.46    9.14
  -4  15  -8    3.35    2.38
   4  15   8    8.84    3.96
  -4  15  -8   11.33    6.15
  -4  15  -8    9.53    4.22
  -4  15  -8   14.47    6.63
  -4  15  -9   19.87    6.13
   4  15   9   28.22    7.63
  -4  15  -9   21.93    6.28
  -4  15  -9   25.12    7.33
  -4  15  -9   27.71    8.49
  -4  15 -10   19.09    6.41
   4  15  10   18.93    5.63
  -4  15 -10   39.04    7.57
  -4  15 -10   24.11    6.51
  -4  15 -10   34.71    8.09
   4  15  11   95.22   11.85
  -4  15 -11   82.19   11.71
  -4  15 -11   91.88   11.24
  -4  15 -11   72.98   10.46
  -4  15 -11   82.87   12.47
   4  15  12    1.74    1.90
  -4  15 -12    4.80    2.70
  -4  15 -12   -1.87    3.22
  -4  15 -12   -1.10    1.97
   4  15  13   11.18    3.79
  -4  15 -13    9.86    3.56
  -4  15 -13    5.99    2.64
   4  15  14   17.79    4.10
  -4  15 -14   13.96    3.73
  -4  15 -14   17.29    4.60
  -4  16  12   32.75    5.38
  -4  16  11    3.79    2.36
  -4  16  10   88.98   11.20
   4  16  -9    2.57    2.94
  -4  16   9   -4.90    4.26
   4  16  -8    4.61    3.55
  -4  16   8    4.30    3.96
   4  16  -8   12.44    5.61
   4  16  -7    7.58    3.17
  -4  16   7    4.67    3.12
   4  16  -7    7.48    3.37
   4  16  -7    7.28    5.43
  -4  16   6   43.62   10.01
   4  16  -6   31.79    8.53
   4  16  -6   52.89    8.85
   4  16  -6   28.97    7.40
   4  16  -5    0.71    4.28
  -4  16   5    8.68    4.58
   4  16  -5    9.22    4.58
   4  16  -5    1.35    2.66
   4  16  -4  109.19   15.63
   4  16  -4  135.97   15.70
   4  16  -4  146.87   18.13
  -4  16   4  139.56   15.44
  -4  16   3   22.59    6.68
   4  16  -3   13.41    5.40
   4  16  -3   12.13    5.27
   4  16  -3   21.37    7.38
  -4  16   3   33.89    8.67
   4  16  -2   96.36   14.21
   4  16  -2  124.08   15.53
  -4  16   2  112.32   16.03
   4  16  -2  105.43   14.84
  -4  16   2   97.32   14.41
  -4  16   2  105.28   15.36
  -4  16   1    0.72    3.21
   4  16  -1   -1.35    2.96
  -4  16   1    0.71    2.68
   4  16  -1   -2.05    3.56
  -4  16   1   -4.26    2.50
  -4  16   0   17.03    4.96
  -4  16   0    9.01    4.08
   4  16   0    9.14    3.47
   4  16   0    9.78    4.59
  -4  16   0   12.56    6.28
  -4  16  -1    4.47    5.26
  -4  16  -1   -2.00    3.23
   4  16   1   -0.63    2.77
   4  16   1    2.11    2.78
  -4  16  -1   11.35    6.98
  -4  16  -2  112.22   14.39
   4  16   2  127.48   16.00
   4  16   2  109.07   13.88
  -4  16  -2  107.59   15.99
  -4  16  -2  120.61   16.40
   4  16   3   23.28    6.60
  -4  16  -3   21.28    6.67
  -4  16  -3   11.92    4.76
  -4  16  -4  136.45   14.98
  -4  16  -4  146.45   17.58
  -4  16  -5    1.98    4.39
  -4  16  -5    7.08    3.61
  -4  16  -5   -1.36    3.12
  -4  16  -5   -0.61    2.71
  -4  16  -6   33.07    8.21
   4  16   6   40.57    8.35
  -4  16  -6   25.30    6.60
  -4  16  -7   10.56    3.12
   4  16   7   10.79    4.54
  -4  16  -7   -1.77    2.90
  -4  16  -7    9.66    4.70
  -4  16  -8    2.66    2.89
   4  16   8    3.71    2.07
  -4  16  -8    2.16    3.20
  -4  16  -8   11.41    5.20
  -4  16  -9    4.72    3.32
   4  16   9    2.94    2.81
  -4  16  -9    6.33    4.36
  -4  16  -9    5.97    4.28
   4  16  10   78.26   10.15
  -4  16 -10   74.90    9.73
  -4  16 -10   60.60    8.78
  -4  16 -10   71.98   10.79
   4  16  11    7.12    3.11
  -4  16 -11   13.08    4.08
  -4  16 -11   13.71    4.01
   4  16  12   24.22    4.79
  -4  16 -12   20.86    4.20
  -4  16 -12   17.02    4.34
  -4  17  10   23.24    4.95
  -4  17   9   17.85    4.37
  -4  17   8   15.10    5.05
   4  17  -7    2.58    2.30
  -4  17   7    2.48    2.76
   4  17  -7   -0.36    1.37
   4  17  -6   18.50    5.24
  -4  17   6   16.53    5.30
   4  17  -6   25.33    5.25
   4  17  -5   24.80    5.81
  -4  17   5   35.67    7.97
   4  17  -5   43.37    7.40
   4  17  -4   18.07    5.48
   4  17  -4   19.49    5.37
   4  17  -4   11.55    4.32
  -4  17   3   62.16    9.46
   4  17  -3   54.01    9.41
   4  17  -3   43.28    8.14
   4  17  -3   69.03    9.84
  -4  17   3   58.40    9.33
  -4  17   2   64.97    9.93
  -4  17   2   63.63   10.54
   4  17  -2   55.04    9.10
   4  17  -2   45.35    8.56
  -4  17   2   47.85    8.74
  -4  17   1    9.42    5.21
  -4  17   1    1.12    3.00
   4  17  -1   11.07    4.07
   4  17  -1    9.85    3.35
  -4  17   1    9.05    4.06
  -4  17   0    5.78    4.62
  -4  17   0    5.46    3.23
   4  17   0   14.73    4.91
   4  17   0    7.29    2.21
  -4  17   0   13.67    6.10
  -4  17  -1    0.59    3.82
  -4  17  -1    4.25    2.43
   4  17   1   10.40    3.91
   4  17   1    1.14    2.19
  -4  17  -1    3.06    3.19
  -4  17  -2   66.39   11.19
   4  17   2   57.59   10.26
  -4  17  -2   53.57    9.48
  -4  17  -2   65.65   11.22
  -4  17  -3   66.99   10.84
  -4  17  -3   75.17   10.42
   4  17   3   65.70   10.37
  -4  17  -3   67.47   10.89
   4  17   4   25.58    6.70
  -4  17  -4   26.09    5.98
  -4  17  -4   23.78    7.47
  -4  17  -5   27.30    6.81
  -4  17  -5   24.75    5.88
  -4  17  -5   31.72    7.81
  -4  17  -6   15.42    4.81
  -4  17  -7    0.45    1.83
  -4  17  -7   -1.39    2.91
  -4  17  -8   10.49    3.85
   4  17   8   10.87    3.91
  -4  17  -8    9.57    4.21
   4  17   9   23.75    5.35
  -4  17  -9   16.19    4.61
  -4  17  -9   23.43    5.42
   4  17  10   21.02    4.89
  -4  17 -10   14.35    3.77
  -4  17 -10   10.11    3.71
  -4  18   8    0.59    1.90
  -4  18   7    3.73    2.68
  -4  18   6    2.25    1.63
   4  18  -5   11.39    3.17
  -4  18   5   13.60    3.78
   4  18  -4   24.42    5.18
   4  18  -4   31.23    5.39
  -4  18   3   16.69    4.28
   4  18  -3   19.69    4.54
   4  18  -3   14.79    3.86
  -4  18   3   16.35    4.16
  -4  18   2   13.67    3.58
  -4  18   2    7.13    3.01
   4  18  -2   11.18    3.55
   4  18  -2   10.55    3.27
  -4  18   2   15.56    4.18
  -4  18   1   13.15    4.72
   4  18  -1   17.02    4.20
  -4  18   1   13.67    4.48
  -4  18   1   15.14    5.29
  -4  18   0   -4.66    3.78
   4  18   0    4.62    3.13
  -4  18   0    1.21    1.87
  -4  18   0   -3.60    3.30
  -4  18  -1   20.91    5.74
   4  18   1   18.00    4.68
  -4  18  -1   13.74    4.80
  -4  18  -1   20.13    5.48
  -4  18  -2    9.57    4.38
   4  18   2    8.05    3.22
  -4  18  -2   11.61    3.87
  -4  18  -2   12.27    4.14
  -4  18  -3   19.95    6.03
  -4  18  -3   16.72    4.49
   4  18   3   24.37    5.74
  -4  18  -3   19.00    5.68
  -4  18  -4   28.73    5.14
   4  18   4   28.24    5.80
  -4  18  -4   33.72    6.92
   4  18   5   17.02    4.45
  -4  18  -5    9.15    3.53
  -4  18  -6    5.27    2.43
  -4  18  -7    3.07    2.63
  -4  18  -8    6.86    2.67
   4  19  -4   -0.60    1.10
   4  19  -3   14.55    3.11
  -4  19   3   13.48    3.59
  -4  19   2   -0.87    1.66
   4  19  -2    1.00    1.72
  -4  19   2    4.58    2.05
   4  19  -1   -0.27    1.39
  -4  19   1   -3.43    2.51
  -4  19   0   -1.11    1.95
   4  19   0    0.83    1.19
  -4  19   0    1.85    1.70
   4  19   1    1.40    1.17
  -4  19  -1    2.41    2.02
  -4  19  -1    1.31    2.07
   4  19   2   -1.97    1.18
  -4  19  -2    2.51    2.04
  -4  19  -2    6.67    2.98
   4  19   3   17.42    3.81
  -4  19  -3   12.77    3.71
   4  19   4   -1.07    1.02
  -4  19  -4    4.38    2.65
   5   0 -21   21.69    5.51
   5   0 -20    4.33    3.73
   5   0 -19    0.78    4.25
   5   0 -18    3.82    4.71
   5   0 -17    1.13    4.67
   5   0 -16   10.57    9.17
  -5   0  15   32.76   12.05
   5   0 -15   43.96   14.62
  -5   0  14   10.95   11.23
   5   0 -14    5.13    5.02
  -5   0  13  102.32   25.50
   5   0 -13   90.57   22.44
  -5   0  12   22.72   16.39
   5   0 -12   11.85   11.55
  -5   0  11  211.64   37.48
   5   0 -11  239.39   38.64
  -5   0  10    8.14    6.57
  -5   0   9  179.62   31.89
   5   0  -9  162.30   25.71
   5   0  -8   50.04   14.24
  -5   0   8   18.89    6.39
  -5   0   7  401.57   42.27
   5   0  -7  381.71   37.93
  -5   0   6   16.13    8.22
   5   0  -6    9.65    6.14
  -5   0   5   48.44   14.62
  -5   0   4   46.08   12.04
  -5   0   3  685.56   48.52
  -5   0   2   10.22    6.81
  -5   0   1  189.12   24.24
  -5   0   0   -0.98    4.88
  -5   0  -1  185.94   23.79
  -5   0  -2    9.72    7.70
  -5   0  -3  824.46   55.02
  -5   0  -4   61.78   16.59
  -5   0  -5   61.69   14.15
  -5   0  -5   46.67   12.80
  -5   0  -6   11.78    8.63
  -5   0  -6    9.25    6.87
  -5   0  -7  384.87   39.26
  -5   0  -7  418.47   42.22
  -5   0  -8   36.95   13.71
  -5   0  -8   31.82   12.52
  -5   0  -9  193.47   30.56
   5   0  10   16.45    7.18
  -5   0 -10    6.84    8.06
   5   0  11  271.29   44.66
   5   0  11  246.56   43.90
   5   0  12   19.61   11.32
   5   0  12    2.57   11.88
   5   0  13  158.12   35.24
  -5   0 -13   73.53   23.70
   5   0  13  124.22   30.58
   5   0  14   12.34    9.40
  -5   0 -14   22.24   12.06
   5   0  14   15.60   15.35
   5   0  15   68.61   19.96
   5   0  15   53.63   19.06
   5   0  16    1.59    4.77
   5   0  17    9.08    7.92
   5   0  18    9.30    5.44
   5   0  19    8.87    5.56
   5   0  20   -2.45    3.00
   5   0  21   15.48    4.72
   5   1 -21    6.80    3.31
   5  -1 -21    4.38    3.33
   5   1 -20   10.95    6.25
   5  -1 -20   15.09    5.63
   5  -1 -19   -4.67    2.78
   5  -1 -18   18.97    7.40
   5  -1 -17   22.49    9.71
   5  -1 -16   10.47    4.66
   5  -1 -15    4.50    5.71
  -5  -1  14   88.14   22.29
   5  -1 -14   62.55   17.76
  -5  -1  13   85.61   28.13
   5  -1 -13  109.83   24.83
  -5  -1  12   -6.76    5.36
   5  -1 -12   -9.76   10.45
  -5  -1  11    4.37    7.47
   5  -1 -11    9.59   10.03
  -5  -1  10   74.31   24.02
  -5  -1   9  639.51   61.73
   5  -1  -9  503.49   47.96
  -5  -1   8  904.78   68.90
   5  -1  -8  867.58   60.32
  -5  -1   7   65.75   17.30
   5  -1  -7   60.02   13.79
  -5  -1   6   86.56   18.15
   5  -1  -6   77.20   16.93
  -5  -1   5  895.55   57.46
  -5  -1   4   33.70   10.81
  -5  -1   3   20.15    9.12
  -5  -1   2  110.24   18.54
  -5  -1   1  985.19   56.42
  -5  -1   0 3048.05  113.12
  -5  -1  -1  937.06   55.36
  -5  -1  -2  123.55   19.69
  -5  -1  -3   20.91    9.61
  -5  -1  -4   13.82   11.44
  -5  -1  -5  963.23   64.30
  -5  -1  -5  862.11   57.23
  -5  -1  -6   95.57   19.95
  -5  -1  -6   87.12   18.20
  -5  -1  -7   50.48   13.48
  -5  -1  -7   59.90   16.36
  -5  -1  -8  842.66   60.29
  -5  -1  -9  514.03   49.62
   5  -1  10   88.44   25.15
  -5  -1 -10   64.68   19.14
   5  -1  11   14.99   11.72
   5  -1  11    2.32    8.17
   5  -1  12    8.01    8.85
   5  -1  12   -2.45    8.46
  -5   1 -12    1.93    6.89
   5  -1  13  130.56   34.02
  -5  -1 -13   88.00   25.83
   5  -1  13   89.09   25.82
  -5   1 -13   62.43   20.93
   5  -1  14   89.30   27.14
  -5  -1 -14   75.97   20.27
   5  -1  14  123.14   27.95
  -5   1 -14  145.15   28.38
   5  -1  15    4.33    7.06
   5  -1  15    9.67   11.78
  -5   1 -15   11.03    8.86
   5  -1  16   16.11    9.82
  -5   1 -16    5.42    7.48
   5  -1  17   11.76    9.14
  -5   1 -17   16.92    7.71
   5  -1  18   29.01   11.07
   5  -1  19   -3.20    4.67
   5  -1  20    8.41    4.45
   5  -1  21   -0.43    1.56
   5   2 -21   18.20    6.33
   5   2 -21   17.93    4.80
   5  -2 -21   13.54    3.92
   5   2 -20    7.21    2.54
   5  -2 -20   -2.60    4.33
   5   2 -19    5.13    3.85
   5  -2 -19    2.30    3.66
   5  -2 -18    0.94    3.18
   5   2 -18    1.79    3.08
   5   2 -17   21.19    9.13
   5  -2 -17    8.89    8.50
   5  -2 -16   14.23    7.38
   5   2 -16   -1.23    5.71
   5  -2 -15   77.15   18.46
   5   2 -15   39.56   13.37
  -5  -2  14    5.89    6.88
  -5   2  14   10.81    7.09
   5  -2 -14    3.35    6.16
   5   2 -14   17.54   11.84
  -5  -2  13   31.81   17.42
  -5   2  13   31.02   12.40
   5  -2 -13   14.78    8.12
   5   2 -13   15.85   10.41
  -5  -2  12   49.39   24.03
  -5   2  12   81.61   21.45
   5   2 -12   59.77   19.96
   5  -2 -12   41.06   15.53
  -5  -2  11    4.12    6.11
  -5   2  11    9.72    7.79
   5   2 -11   20.27   14.09
   5  -2 -11   15.40   12.55
  -5  -2  10    9.47    7.07
  -5   2  10   30.30   13.30
  -5  -2   9   36.74   12.85
  -5   2   9   37.10   11.64
   5  -2  -9   25.95   10.68
   5   2  -9   36.39   13.90
  -5  -2   8  233.62   33.89
  -5   2   8  263.37   32.73
   5  -2  -8  249.76   31.38
   5   2  -8  243.93   30.94
  -5  -2   7 1084.42   70.41
  -5   2   7 1081.79   65.18
   5  -2  -7 1031.92   63.50
   5   2  -7 1055.19   64.30
  -5   2   6   62.49   14.61
  -5  -2   6   49.98   14.31
   5  -2  -6   53.72   14.30
   5   2  -6   62.65   15.14
   5  -2  -5   33.98   10.88
   5   2  -5   27.00   10.36
  -5  -2   5   26.97    8.72
  -5   2   5   21.30    9.78
  -5  -2   4 1206.50   66.55
  -5   2   4 1264.72   66.02
  -5  -2   3  198.48   24.52
  -5   2   3  204.93   24.36
  -5  -2   2  189.13   22.76
  -5   2   2  176.77   22.13
  -5  -2   1 2188.36   89.54
  -5   2   1 1965.95   82.71
  -5   2   0 3406.96  119.78
  -5  -2   0 3817.35  128.46
  -5   2  -1 1958.51   84.07
  -5  -2  -1 2071.39   86.75
  -5   2  -2  226.37   26.25
  -5  -2  -2  213.50   24.94
  -5  -2  -3  253.51   29.12
  -5   2  -3  246.27   29.21
  -5  -2  -4 1274.32   71.19
  -5   2  -4 1503.17   76.99
  -5  -2  -5   19.49    7.19
  -5   2  -5   35.01   11.88
  -5  -2  -5   21.89   11.14
  -5   2  -5   22.10   10.15
  -5  -2  -6   44.57   12.92
  -5   2  -6   47.25   13.33
  -5  -2  -6   46.32   13.52
  -5   2  -6   68.95   16.74
  -5  -2  -7 1008.98   66.64
  -5   2  -7 1121.71   69.65
  -5  -2  -7  964.92   63.19
  -5   2  -7 1053.06   65.71
  -5   2  -8  278.55   33.98
  -5  -2  -8  245.09   32.22
  -5   2  -9   26.15   11.45
  -5  -2  -9   31.71   12.56
  -5  -2 -10   11.67   10.65
  -5   2 -10    5.01    4.99
   5  -2  11    7.17    7.36
   5   2  11    9.28   12.29
   5  -2  11    8.84    8.78
   5   2  11   -2.15   10.41
  -5   2 -11   14.97   10.70
   5  -2  12   99.12   27.99
   5   2  12   80.25   22.23
   5  -2  12   65.29   23.68
   5   2  12   47.72   18.90
  -5   2 -12   24.06   13.86
   5  -2  13   18.11    9.85
   5   2  13   22.93   15.77
  -5   2 -13   11.17    5.58
  -5  -2 -13    9.17   11.41
   5  -2  13   37.63   16.55
   5   2  13   50.09   16.99
  -5   2 -13   30.20   13.49
   5  -2  14   12.33    6.50
   5   2  14   21.13    8.20
  -5   2 -14   14.58   13.67
  -5  -2 -14   23.47   15.88
   5  -2  14    2.22    7.30
   5   2  14   32.38   15.65
  -5   2 -14   26.24   14.43
   5  -2  15  111.60   27.65
   5   2  15   72.81   21.62
  -5   2 -15   81.96   20.51
   5  -2  16   16.06    9.90
   5   2  16    8.33    7.52
  -5   2 -16    5.78    6.24
   5  -2  17   14.29   10.32
   5   2  17   11.36    9.42
  -5   2 -17   21.63    9.97
   5  -2  18    7.15    6.71
   5   2  18    0.91    4.51
  -5   2 -18    0.97    4.42
   5  -2  19   -0.78    2.60
   5   2  19    5.76    3.82
  -5   2 -19    3.03    4.47
   5  -2  20    2.30    1.98
   5   2  20    3.32    2.80
   5  -2  21    7.67    2.94
   5   2  21    4.88    2.34
   5   3 -21    5.87    3.48
   5   3 -20    6.46    3.72
   5  -3 -20   -0.88    2.18
   5  -3 -19   -2.23    4.04
   5   3 -19    0.70    2.97
   5   3 -19    0.85    2.89
   5  -3 -18    9.11    6.82
   5   3 -18    6.88    4.39
   5  -3 -17   -5.42    8.31
   5   3 -17    9.20    6.30
   5   3 -16   -4.77    4.73
   5  -3 -16   11.39    9.57
   5   3 -15    9.57    6.86
   5  -3 -15   14.54    8.82
  -5   3  14  144.86   23.34
  -5  -3  14  108.12   29.37
   5   3 -14   83.56   19.07
   5  -3 -14  126.74   25.20
  -5  -3  13    1.95    5.07
  -5   3  13   16.34    8.07
   5   3 -13   10.30    8.73
   5  -3 -13   16.43   10.38
  -5   3  12   32.85   13.17
  -5  -3  12   56.09   17.75
   5  -3 -12   35.43   13.71
   5   3 -12   33.35   13.27
  -5  -3  11   -5.52    7.34
  -5   3  11   14.69   10.05
   5  -3 -11    3.92    6.85
   5   3 -11    7.38   10.07
  -5  -3  10    1.68   10.36
  -5   3  10    5.18    7.67
   5  -3 -10   11.17   12.13
   5   3 -10    8.79   10.05
  -5  -3   9   86.17   21.35
  -5   3   9   63.54   15.78
   5  -3  -9   66.21   17.82
   5   3  -9   64.62   16.85
  -5  -3   8   52.53   17.27
  -5   3   8   59.85   14.68
   5  -3  -8   60.63   15.10
   5   3  -8   53.39   15.59
  -5  -3   7    8.49    7.99
  -5   3   7   28.06   10.07
   5  -3  -7   24.88   11.66
   5   3  -7   26.64   11.08
  -5  -3   6 1285.54   71.04
  -5   3   6 1220.53   65.85
   5  -3  -6 1235.78   68.21
   5   3  -6 1229.92   67.98
  -5   3   5  108.33   17.93
   5  -3  -5   99.27   17.96
   5   3  -5  100.00   18.95
  -5  -3   5   83.36   16.93
  -5  -3   4 1519.88   74.80
  -5   3   4 1563.25   74.02
  -5  -3   3  301.22   29.91
  -5   3   3  332.10   30.40
  -5  -3   2  343.54   30.75
  -5   3   2  335.41   29.39
  -5   3   1  196.95   22.26
  -5  -3   1  225.40   26.01
  -5  -3   0  628.58   42.58
  -5   3   0  627.14   40.41
  -5  -3  -1  221.33   24.48
  -5   3  -1  229.05   24.08
  -5   3  -1  190.70   16.43
  -5   3  -2  381.31   33.64
  -5  -3  -2  355.94   32.59
  -5  -3  -3  362.35   33.66
  -5   3  -3  348.05   33.37
  -5  -3  -4 1743.26   82.48
  -5   3  -4 1674.68   82.58
  -5   3  -5  102.91   18.28
  -5  -3  -5  127.10   20.22
  -5  -3  -5  123.18   21.93
  -5   3  -5  112.27   20.63
  -5   3  -6 1350.25   74.46
  -5  -3  -6 1151.55   66.48
  -5   3  -6 1192.64   67.38
  -5  -3  -6 1284.98   73.07
  -5  -3  -7   15.93    6.85
  -5   3  -7   24.98   10.29
  -5  -3  -7   22.56   12.44
  -5   3  -7   13.76    8.22
  -5  -3  -8   27.91    8.94
  -5   3  -8   54.95   15.71
  -5   3  -9   68.65   18.75
  -5  -3  -9   54.53   16.72
  -5   3 -10   15.07    9.32
  -5  -3 -10   -1.71    6.74
   5  -3  10   -1.93    8.79
   5   3  10   -5.40    7.71
   5   3  11   -3.86   10.73
   5  -3  11   10.36   12.14
  -5   3 -11    3.66    7.05
  -5   3 -11    5.14    7.98
  -5   3 -12   22.18   12.34
  -5  -3 -12   46.64   14.30
   5  -3  12   47.77   19.83
   5   3  12   19.60   11.20
  -5   3 -12   41.65   17.26
  -5   3 -13   19.35   11.61
  -5  -3 -13   13.56   11.34
   5  -3  13    4.38    7.78
   5   3  13  -11.45   12.72
  -5   3 -13   27.71   13.44
  -5   3 -14   99.31   23.26
  -5  -3 -14   95.20   23.93
   5   3  14  146.07   28.87
   5  -3  14  140.70   29.75
  -5   3 -14  168.48   30.76
   5  -3  15   11.23    8.06
   5   3  15    6.16    7.38
  -5   3 -15   19.57    9.66
   5  -3  16   -4.69    8.44
   5   3  16   -1.30    5.08
  -5   3 -16    1.42    4.96
   5   3  17    2.12    3.87
   5  -3  17   12.56    7.26
  -5   3 -17   11.96    5.75
   5  -3  18    3.91    6.28
   5   3  18    9.34    5.62
  -5   3 -18    9.82    5.92
   5  -3  19    2.20    2.98
   5   3  19    5.35    4.42
  -5   3 -19    1.56    2.73
   5  -3  20   -1.07    2.68
   5   3  20    1.54    2.99
  -5   3 -20    5.92    3.86
   5  -3  21   -0.37    1.81
   5   3  21   -0.75    2.18
  -5   3 -21    1.58    1.88
   5   4 -21   12.69    4.33
   5   4 -21   20.94    5.70
   5   4 -20    8.31    5.95
   5   4 -20    7.36    3.84
   5   4 -19    0.81    4.68
   5  -4 -18   32.88   10.08
   5   4 -18   30.22    8.80
   5   4 -18   45.67   11.17
   5  -4 -17   21.79    9.06
   5   4 -17   17.65    8.19
   5  -4 -16   29.17   11.47
   5   4 -16   44.75   12.39
   5   4 -15   67.45   15.93
   5  -4 -15   91.01   19.68
   5  -4 -14   83.56   19.14
   5   4 -14   70.68   19.10
  -5   4  14  103.36   18.32
  -5  -4  14  119.20   26.35
   5  -4 -13   31.37   12.97
   5   4 -13   18.47   10.01
  -5  -4  13   32.55   15.04
  -5   4  13   11.79    7.15
   5  -4 -12  162.23   30.41
   5   4 -12  135.31   27.01
  -5   4  12  178.23   25.60
  -5  -4  12  132.50   28.71
   5  -4 -11   34.84   16.44
   5   4 -11   39.42   14.13
   5   4 -11   55.48   14.47
  -5   4  11   44.78   12.87
  -5  -4  11   21.89   10.13
  -5   4  10  120.50   20.54
  -5  -4  10  102.69   22.79
   5  -4 -10   84.22   21.74
   5   4 -10  122.83   25.90
  -5  -4   9   15.93    9.61
  -5   4   9    9.57    6.11
  -5  -4   8  884.30   60.27
  -5   4   8  895.97   54.78
   5  -4  -8  801.09   59.24
   5   4  -8  830.08   59.09
  -5  -4   7  433.80   39.78
  -5   4   7  470.16   38.51
   5  -4  -7  453.22   40.82
   5   4  -7  432.33   39.25
  -5  -4   6  198.91   25.58
  -5   4   6  182.39   23.36
   5  -4  -6  168.84   24.38
   5   4  -6  179.01   24.40
  -5  -4   5   46.40   13.34
  -5   4   5   57.06   14.11
   5  -4  -5   73.67   15.62
   5   4  -5   54.77   12.65
  -5  -4   4 2501.49  102.29
  -5   4   4 2431.32  100.63
   5  -4  -4 2684.11  106.81
   5   4  -4 2801.55  108.61
  -5  -4   3  114.41   18.63
  -5   4   3  114.52   18.26
  -5  -4   2  629.04   42.36
  -5   4   2  547.16   38.19
  -5  -4   1  240.85   24.59
  -5   4   1  173.33   21.00
  -5   4   0 3758.55  122.76
  -5  -4   0 3864.24  126.05
  -5   4   0 3508.25  111.85
  -5  -4  -1  186.95   23.13
  -5   4  -1  184.61   17.44
  -5   4  -2  655.59   44.99
  -5  -4  -2  633.12   43.91
  -5  -4  -3  112.32   18.75
  -5   4  -3  151.10   21.94
  -5   4  -4 2791.59  111.13
  -5  -4  -4 2474.27  104.34
  -5   4  -4 2621.75  105.05
  -5  -4  -4 2620.62  109.51
  -5  -4  -5   57.98   14.28
  -5   4  -5   45.55   12.40
  -5  -4  -5   44.93   13.42
  -5   4  -5   54.42   14.08
  -5  -4  -6  186.78   26.25
  -5   4  -6  216.78   28.19
  -5  -4  -6  180.24   24.54
  -5   4  -6  182.37   24.31
  -5   4  -7  404.46   40.04
  -5  -4  -7  418.70   40.44
  -5  -4  -7  450.02   40.37
  -5   4  -7  444.85   40.55
  -5   4  -7  473.09   46.44
  -5  -4  -8  797.86   58.97
  -5   4  -8  870.70   60.72
  -5  -4  -9   -6.09    5.04
  -5   4  -9   -2.95    6.92
   5   4  10  104.65   23.64
   5  -4  10  117.18   27.36
  -5   4 -10   62.44   18.97
  -5   4 -10   81.93   20.40
   5  -4  11   48.96   17.08
   5   4  11   42.28   15.48
  -5   4 -11   31.31   10.27
  -5   4 -11   41.29   15.87
   5   4  12  195.10   32.11
   5  -4  12  170.62   33.50
  -5   4 -12  123.27   28.16
  -5  -4 -12  132.55   29.37
  -5   4 -12  177.44   30.33
  -5   4 -12  163.63   30.38
  -5   4 -13   26.54   15.29
  -5  -4 -13   19.53   11.04
   5  -4  13   27.64   14.76
   5   4  13   20.37   11.76
  -5   4 -13   14.36    9.04
  -5   4 -13    8.39    6.10
  -5   4 -14  128.90   26.67
  -5  -4 -14  101.22   24.10
   5  -4  14  132.88   27.29
   5   4  14  112.26   24.08
  -5   4 -14  139.61   25.59
  -5   4 -14  115.34   24.47
   5  -4  15  131.58   26.58
   5   4  15   85.18   19.33
  -5   4 -15   78.24   17.78
  -5   4 -15  129.53   24.49
   5  -4  16   48.25   15.38
   5   4  16   50.72   14.35
  -5   4 -16   43.13   12.94
   5  -4  17   23.38    8.96
   5   4  17   19.30    7.76
  -5   4 -17   16.35    7.76
   5  -4  18   30.57    9.88
   5   4  18   14.65    5.79
  -5   4 -18   28.85    9.28
   5  -4  19    2.67    3.48
   5   4  19    7.25    4.58
  -5   4 -19    2.30    2.40
   5  -4  20    3.33    1.92
   5   4  20    2.76    3.62
  -5   4 -20    2.34    2.87
   5   4  21   10.47    3.48
   5  -4  21   13.13    3.37
  -5   4 -21    8.06    2.81
   5   5 -21   15.36    4.64
   5   5 -21    4.62    2.89
   5   5 -20    7.25    2.72
   5   5 -20   11.46    5.54
   5   5 -19   27.30    8.96
   5   5 -19   17.83    7.27
   5  -5 -18   18.16    7.02
   5   5 -18   11.94    6.63
   5   5 -18   15.89    7.53
   5  -5 -17   50.00   12.59
   5   5 -17   34.53   10.04
   5  -5 -16    8.90    7.47
   5   5 -16   20.40    8.27
   5   5 -15   54.75   14.76
   5  -5 -15   76.97   16.24
   5  -5 -14  120.30   22.40
   5   5 -14  111.06   22.00
   5   5 -13  197.87   31.38
   5  -5 -13  176.00   28.89
   5   5 -13  217.62   24.57
  -5  -5  13  219.62   32.96
  -5   5  13  206.59   24.78
   5   5 -12   26.65   12.64
   5  -5 -12    6.86    9.42
   5   5 -12   14.05    6.35
   5   5 -12   41.13   13.52
  -5  -5  12   23.67    8.76
  -5   5  12    9.50    6.58
   5  -5 -11  158.99   28.53
   5   5 -11   98.59   23.14
   5   5 -11  140.69   24.16
   5   5 -11  181.78   24.17
  -5  -5  11  142.72   25.77
  -5   5  11  153.71   22.15
   5  -5 -10   59.42   18.20
   5   5 -10  109.94   24.52
   5   5 -10   70.87   17.83
   5   5 -10   63.10   14.74
  -5  -5  10   81.12   17.53
  -5   5  10   79.17   15.57
  -5  -5   9  821.85   56.77
  -5   5   9  919.30   54.23
  -5  -5   8  285.05   31.57
  -5   5   8  307.08   29.75
   5  -5  -8  276.31   33.33
   5   5  -8  256.67   33.25
  -5  -5   7  476.46   40.60
  -5   5   7  458.99   37.37
   5  -5  -7  432.79   39.84
   5   5  -7  402.36   38.92
  -5  -5   6   34.42   11.96
  -5   5   6   34.56    9.15
   5  -5  -6   25.34    9.48
   5   5  -6   16.08    8.55
  -5  -5   5 2104.19   90.89
  -5   5   5 2120.24   89.20
   5  -5  -5 2025.36   89.66
   5   5  -5 2059.15   89.83
   5  -5  -5 2078.25   90.78
   5   5  -5 2176.25   92.68
   5  -5  -4   55.80   12.31
   5   5  -4   78.63   15.21
  -5  -5   4   51.50   12.83
  -5   5   4   44.80   10.91
   5  -5  -4   54.66   11.57
   5   5  -4   62.46   13.84
  -5  -5   3 2251.77   90.28
  -5   5   3 2142.06   86.95
  -5  -5   2    6.78    4.40
  -5   5   2    7.90    5.12
  -5   5   1 2013.95   77.70
  -5  -5   1 1985.38   78.93
  -5  -5   0  909.34   50.52
  -5   5   0  944.94   50.39
  -5   5   0  770.83   42.34
  -5   5  -1 2079.80   83.38
  -5  -5  -1 2119.58   85.30
  -5  -5  -2    0.93    4.19
  -5   5  -2   17.28    8.97
  -5   5  -3 2309.69   94.54
  -5  -5  -3 2316.11   94.73
  -5  -5  -4   54.28   12.85
  -5   5  -4   59.34   13.89
  -5  -5  -4   56.81   14.00
  -5   5  -4   63.59   13.45
  -5  -5  -5 1986.61   90.36
  -5   5  -5 1961.27   89.35
  -5  -5  -5 2002.77   86.92
  -5   5  -5 2021.82   86.64
  -5  -5  -6   19.30    7.88
  -5   5  -6   21.81    8.53
  -5  -5  -6   35.88   11.74
  -5   5  -6   17.48    7.78
  -5   5  -6   43.81   17.24
  -5  -5  -7  405.57   39.04
  -5   5  -7  431.52   39.92
  -5   5  -7  452.13   46.96
  -5  -5  -8  234.07   30.95
  -5   5  -8  281.41   33.69
  -5   5  -8  281.55   36.60
  -5  -5  -9  651.95   56.83
  -5   5  -9  777.29   61.25
  -5   5  -9  596.72   52.45
  -5   5  -9  653.46   56.43
   5  -5  10   76.08   19.26
   5   5  10   91.22   20.26
  -5   5 -10   53.05   16.33
  -5   5 -10   84.54   19.90
   5  -5  11  173.53   29.78
   5   5  11  152.57   25.26
  -5   5 -11  114.37   26.72
  -5  -5 -11  133.26   28.57
  -5   5 -11  148.34   27.23
  -5   5 -11  157.71   28.95
  -5   5 -12    9.93    8.85
  -5  -5 -12   27.76   11.76
   5  -5  12   34.52   14.99
   5   5  12   36.37   14.87
  -5   5 -12   25.68   12.91
  -5   5 -12   13.81    9.19
   5  -5  13  235.38   35.44
   5   5  13  224.17   32.01
  -5   5 -13  162.25   29.52
  -5  -5 -13  186.67   33.28
  -5   5 -13  294.17   37.29
  -5   5 -13  287.47   38.59
   5  -5  14  124.59   27.07
   5   5  14  117.63   22.50
  -5   5 -14  157.01   27.56
  -5   5 -14   98.04   21.79
   5  -5  15   98.39   21.37
   5   5  15   75.94   17.22
  -5   5 -15  111.20   21.49
  -5   5 -15   84.86   20.54
   5  -5  16    2.62    6.59
   5   5  16    5.13    5.86
  -5   5 -16   12.31    7.38
  -5   5 -16   15.07    9.82
   5  -5  17   60.55   14.36
   5   5  17   56.24   12.63
  -5   5 -17   53.43   12.51
  -5   5 -17   90.12   17.54
   5  -5  18    3.98    2.87
   5   5  18   10.69    4.60
  -5   5 -18    5.58    5.18
   5  -5  19   13.97    5.35
   5   5  19   10.36    4.00
  -5   5 -19   17.98    6.15
   5  -5  20    4.89    2.43
   5   5  20   -0.39    1.58
  -5   5 -20    3.40    2.48
   5   5  21    7.62    2.75
   5  -5  21   10.71    3.02
  -5   5 -21    6.66    3.16
   5   6 -20   15.75    4.59
   5   6 -20    8.06    3.40
   5   6 -19    4.59    4.08
   5   6 -19    3.13    2.39
   5   6 -18    3.25    3.75
   5  -6 -17   -0.82    3.70
   5   6 -17    4.79    5.46
   5  -6 -16   54.60   12.83
   5   6 -16   44.04   11.81
   5  -6 -15   32.76   11.02
   5   6 -15   13.42    6.84
   5  -6 -14   19.66    8.13
   5   6 -14   34.76   12.87
   5   6 -14   34.98   10.35
   5  -6 -13   68.45   15.84
   5   6 -13   66.00   17.53
   5   6 -13   64.62   14.85
   5   6 -13   83.40   16.97
  -5  -6  13   40.64   12.90
  -5   6  13   74.68   13.96
   5  -6 -12   84.53   20.20
   5   6 -12  105.28   23.09
   5   6 -12  123.64   19.47
   5   6 -12  133.36   22.80
  -5   6  12   93.10   15.88
  -5  -6  12  103.56   19.29
   5  -6 -11  137.24   26.37
   5   6 -11  135.06   27.23
   5   6 -11  124.43   23.33
   5   6 -11  151.96   22.27
  -5  -6  11  116.13   21.40
  -5   6  11  150.88   19.85
   5  -6 -10  151.21   27.40
   5   6 -10  136.68   27.00
   5   6 -10  129.68   24.46
   5   6 -10  143.76   22.37
  -5   6  10  119.13   17.92
  -5  -6  10   98.95   18.61
   5   6  -9   79.12   21.39
   5   6  -9   59.65   17.06
   5   6  -9   46.28   12.80
   5   6  -9   63.64   14.00
  -5  -6   9   60.05   14.35
  -5   6   9   59.49   12.99
   5   6  -8  156.00   21.29
   5   6  -8  224.12   32.33
  -5  -6   8  165.09   22.54
  -5   6   8  208.04   23.79
  -5  -6   7  142.95   22.04
  -5   6   7  151.30   20.20
   5   6  -7  159.31   25.03
   5  -6  -7  128.62   21.17
  -5  -6   6  378.43   34.05
  -5   6   6  398.22   33.79
   5  -6  -6  290.13   31.09
   5   6  -6  394.21   36.14
   5  -6  -6  394.39   34.65
   5   6  -6  440.58   35.32
  -5  -6   5    6.57    7.72
  -5   6   5   11.39    6.41
   5  -6  -5    8.62    5.43
   5   6  -5    8.77    5.21
   5   6  -5    7.39    3.16
   5  -6  -5    8.61    5.67
  -5  -6   4 1350.12   66.11
  -5   6   4 1326.21   63.54
   5  -6  -4 1195.96   62.77
   5   6  -4 1215.00   63.06
   5   6  -4 1298.86   65.25
   5  -6  -4 1390.61   68.82
  -5  -6   3  250.51   25.39
  -5   6   3  262.84   24.80
  -5   6   3  216.69   23.40
  -5   6   2  686.07   41.45
  -5  -6   2  690.12   42.58
  -5   6   2  607.01   39.00
  -5  -6   1  361.63   29.24
  -5   6   1  326.31   27.25
  -5   6   1  292.32   25.47
  -5  -6   0  724.04   44.11
  -5   6   0  789.44   44.23
  -5   6   0  666.15   40.32
  -5  -6  -1  340.72   29.33
  -5   6  -1  282.51   24.90
  -5  -6  -2  775.69   47.00
  -5   6  -2  795.61   47.35
  -5  -6  -3  257.73   25.95
  -5   6  -3  255.10   26.03
  -5   6  -4 1183.37   61.76
  -5  -6  -4 1220.32   63.35
  -5  -6  -4 1096.35   58.53
  -5   6  -4 1122.12   58.22
  -5   6  -4 1060.20   75.48
  -5  -6  -5   19.76    7.64
  -5   6  -5    5.24    4.40
  -5  -6  -5   11.92    5.70
  -5   6  -5   11.60    6.08
  -5   6  -5    9.54    8.90
  -5  -6  -6  305.43   30.10
  -5   6  -6  307.60   30.34
  -5   6  -6  319.95   40.27
  -5  -6  -7   83.83   16.90
  -5   6  -7  144.49   22.58
  -5   6  -7  149.77   27.53
  -5  -6  -8  165.91   26.91
  -5   6  -8  164.63   26.00
  -5   6  -8  174.60   26.98
  -5   6  -8  162.60   28.63
  -5   6  -8  171.55   26.65
   5  -6   9   54.02   15.96
   5   6   9   58.19   13.99
  -5   6  -9   42.87   13.44
  -5   6  -9   61.12   16.34
  -5   6  -9   48.77   14.43
   5   6  10  120.81   21.12
   5  -6  10  128.18   23.55
  -5   6 -10  130.61   26.36
  -5   6 -10  110.39   22.08
  -5   6 -11  154.52   29.15
  -5  -6 -11   90.20   23.48
   5   6  11  155.42   23.65
   5  -6  11  150.11   25.14
  -5   6 -11  149.22   27.82
  -5   6 -11  131.42   23.72
  -5   6 -12   93.35   21.13
  -5  -6 -12   73.78   20.30
   5  -6  12  139.19   24.87
   5   6  12  109.59   20.07
  -5   6 -12  107.25   23.30
  -5   6 -12  144.25   25.00
  -5   6 -13   62.94   16.93
  -5  -6 -13   72.93   18.61
   5  -6  13   73.09   18.29
   5   6  13   82.80   17.56
  -5   6 -13   67.63   17.28
  -5   6 -13   74.14   18.08
   5  -6  14   38.38   14.09
   5   6  14   32.55   10.64
  -5   6 -14   30.03   13.26
  -5   6 -14   51.02   13.89
   5  -6  15   16.75    8.34
   5   6  15   17.54    8.15
  -5   6 -15   17.58   10.45
  -5   6 -15   10.33    7.09
   5  -6  16   53.12   13.76
   5   6  16   38.38    9.76
  -5   6 -16   51.74   12.53
  -5   6 -16   63.16   15.80
   5  -6  17    2.69    4.09
   5   6  17    1.37    3.20
  -5   6 -17   -2.58    3.05
  -5   6 -17    1.03    5.69
   5  -6  18    2.03    2.98
   5   6  18    5.96    3.50
  -5   6 -18   -0.67    3.93
  -5   6 -18    2.62    5.28
   5  -6  19    3.40    2.93
   5   6  19    3.29    2.86
  -5   6 -19    5.01    3.79
   5   6  20    9.70    3.01
   5  -6  20   11.32    3.38
  -5   6 -20    8.73    3.55
   5   7 -20    2.95    2.04
   5   7 -19    6.64    4.14
   5   7 -18   12.79    3.76
   5   7 -18   20.27    6.60
   5   7 -17    2.39    4.44
   5   7 -17    5.19    6.36
   5  -7 -16   16.87    7.25
   5   7 -16    8.77    6.15
   5   7 -16   17.10    6.75
   5  -7 -15    6.21    4.49
   5   7 -15   10.38    6.61
   5   7 -15   14.09    6.83
   5   7 -15   27.95   10.23
   5  -7 -14    2.00    4.82
   5   7 -14    2.18    5.35
   5   7 -14   -3.05    3.36
   5   7 -13    8.71    7.56
   5   7 -13    9.70    6.58
   5   7 -13    1.20    5.49
   5   7 -12    8.45    7.68
   5   7 -12    1.37    5.35
   5   7 -12   13.01    8.51
   5   7 -11   42.38   15.24
   5   7 -11   49.85   14.17
   5   7 -11   31.93   13.21
  -5   7  11   31.42    8.77
   5   7 -10  150.09   27.68
   5   7 -10  134.88   25.43
   5   7 -10  138.34   22.07
  -5   7  10  127.17   17.69
   5   7  -9    6.99    7.67
   5   7  -9   -6.73    5.03
   5   7  -9   10.79    7.23
  -5  -7   9    2.70    3.05
  -5   7   9    2.36    3.83
   5   7  -8  208.23   22.66
   5   7  -8  196.33   26.79
   5   7  -8  183.09   29.91
   5   7  -8  172.70   21.93
  -5  -7   8  193.21   23.25
  -5   7   8  245.70   25.19
   5   7  -7   22.03    8.28
   5   7  -7   13.73    7.20
   5   7  -7   16.76    8.19
   5   7  -7    9.40    4.50
  -5  -7   7   10.85    6.17
  -5   7   7   11.46    4.74
  -5  -7   6    2.70    4.87
  -5   7   6   -2.41    4.70
   5  -7  -6    4.03    3.47
   5   7  -6   12.35    8.88
  -5   7   6    4.37    3.30
   5   7  -6   10.55    5.91
  -5  -7   5   18.13    6.73
  -5   7   5    7.80    4.99
   5  -7  -5    8.06    4.39
   5   7  -5   13.68    7.51
   5   7  -5    5.59    6.73
  -5   7   5   11.74    5.70
  -5  -7   4  140.58   17.95
  -5   7   4  121.04   16.12
   5  -7  -4  110.82   16.28
   5   7  -4  124.49   17.96
  -5   7   4   93.31   15.34
  -5   7   3  134.85   16.93
  -5  -7   3  166.43   18.73
   5  -7  -3  167.44   19.80
   5   7  -3  165.90   20.34
  -5   7   3  118.14   17.27
  -5   7   2  221.11   20.76
  -5  -7   2  202.49   21.26
  -5   7   2  191.40   21.27
  -5  -7   1    8.40    5.71
  -5   7   1    4.74    3.87
  -5   7   1    2.72    3.64
  -5   7   1    2.35    3.11
  -5   7   0 1141.22   54.29
  -5  -7   0 1199.09   56.32
  -5   7   0 1017.21   53.89
  -5  -7  -1   10.55    5.10
  -5   7  -1    6.37    4.46
  -5  -7  -2  208.27   21.55
  -5   7  -2  209.03   21.28
  -5   7  -2  160.08   28.06
  -5  -7  -3  142.80   18.00
  -5   7  -3  147.15   17.62
  -5   7  -3  121.79   25.25
  -5  -7  -4  110.96   16.51
  -5   7  -4  114.09   16.91
  -5   7  -4   96.68   21.74
  -5  -7  -5   10.00    5.02
  -5   7  -5   11.61    4.18
  -5   7  -5    1.66    9.24
  -5  -7  -6   15.48    7.81
  -5   7  -6    6.73    5.87
  -5   7  -6   10.35    9.66
  -5   7  -7    7.87    4.21
  -5  -7  -7   14.75    8.61
  -5   7  -7   19.28    8.86
  -5   7  -7   12.02    7.75
  -5   7  -7   26.89   10.27
  -5   7  -8  182.94   27.67
   5   7   8  203.30   26.42
  -5   7  -8  178.46   29.74
  -5   7  -8  164.45   25.72
  -5   7  -9    8.59    9.05
   5   7   9    2.50    4.27
  -5   7  -9   -5.61    4.68
  -5   7  -9    1.36    5.13
   5   7  10  147.00   20.14
  -5   7 -10  104.86   22.14
   5   7  10  175.62   27.07
  -5   7 -10  134.33   25.09
  -5   7 -10  121.01   23.48
  -5   7 -11   27.01   12.35
   5   7  11   18.02    7.72
  -5   7 -11   17.91    7.13
  -5   7 -11   30.34   12.95
  -5   7 -12    1.47    7.17
   5   7  12    5.40    5.46
  -5   7 -12   -2.96    6.71
  -5   7 -12   -2.74    6.99
   5  -7  13   -1.27    5.75
   5   7  13    1.76    3.01
  -5   7 -13   12.77    5.33
  -5   7 -13    2.67    4.71
   5  -7  14    9.56    6.44
   5   7  14    9.92    5.63
  -5   7 -14   10.35    4.43
  -5   7 -14   -1.28    5.56
   5  -7  15   22.42    9.16
   5   7  15    8.17    4.82
  -5   7 -15   23.96   10.84
  -5   7 -15   19.12   11.31
   5  -7  16   16.24    7.15
   5   7  16   15.25    6.37
  -5   7 -16   11.72    6.95
  -5   7 -16   18.45    8.45
   5  -7  17   -2.17    2.33
   5   7  17    0.52    1.68
  -5   7 -17   -0.80    3.80
  -5   7 -17    5.72    6.50
   5   7  18    9.24    4.10
   5  -7  18   17.39    5.76
  -5   7 -18   23.62    8.03
  -5   7 -18   12.68    5.47
   5   7  19   -0.88    1.73
  -5   7 -19    3.34    2.88
  -5   7 -19   -0.46    2.48
  -5   7 -20   10.14    5.14
   5   8 -19    6.48    3.19
   5   8 -19   -3.70    2.76
   5   8 -18    8.37    3.44
   5   8 -18    0.58    2.05
   5   8 -17   13.78    5.91
   5   8 -17   12.02    5.43
   5   8 -16   -2.44    1.93
   5   8 -16   -4.40    2.59
   5   8 -16   -2.57    3.85
   5   8 -15   29.23    9.26
   5   8 -15   24.62    8.25
   5   8 -15   45.84   11.01
   5   8 -15   54.06   12.71
   5   8 -14   -1.70    2.96
   5   8 -14    6.91    5.74
   5   8 -14   -2.10    5.95
   5   8 -13    4.85    4.76
   5   8 -13    1.90    4.20
   5   8 -13    4.76    5.83
   5   8 -13    2.20    3.88
   5   8 -12   14.77    7.36
   5   8 -12   27.77   13.01
  -5   8  11   26.85    8.70
   5   8 -11   18.20    7.83
   5   8 -11   10.94    7.34
  -5   8  10   30.76    8.96
   5   8 -10   19.05    7.47
   5   8 -10   28.82   15.35
  -5   8   9   46.07   11.78
   5   8  -9   37.22   13.39
   5   8  -9   36.47   12.44
  -5   8   8   35.22   10.20
   5   8  -8   25.02   12.23
   5   8  -8   25.70   10.02
  -5   8   7  266.75   26.59
   5   8  -7  182.60   25.26
   5   8  -7  229.59   25.48
   5   8  -7  259.46   36.54
  -5   8   7  303.69   38.08
  -5   8   6    8.41    4.93
   5   8  -6   10.12    5.63
   5   8  -6    7.24    6.44
   5   8  -6    8.31    6.23
  -5   8   6   22.69   11.81
  -5   8   5   55.35   12.07
   5   8  -5   23.13    7.84
   5   8  -5   31.24   10.88
   5   8  -5   32.75   10.13
  -5   8   5   23.54   13.02
   5   8  -4   72.69   13.46
  -5   8   4   81.92   14.66
  -5   8   4   80.98   20.71
   5   8  -3  240.86   23.09
  -5   8   3  241.58   24.91
  -5   8   3  215.63   33.89
   5   8  -2   88.85   13.50
  -5   8   2  100.44   15.75
  -5   8   2   96.81   23.15
  -5   8   1  157.60   16.77
  -5   8   1  148.47   19.65
  -5   8   1  122.71   24.92
  -5   8   0  357.61   25.54
  -5   8   0  251.36   24.23
  -5   8  -1  137.51   15.43
  -5   8  -1  130.71   17.54
  -5   8  -2   93.17   12.81
  -5   8  -2   66.29   12.90
  -5   8  -2   55.66   18.18
  -5   8  -3  231.77   20.82
  -5   8  -3  193.59   31.42
  -5   8  -4   73.09   13.03
  -5   8  -4   51.53   16.88
  -5   8  -5   37.32   11.81
  -5   8  -5   29.61   14.57
  -5   8  -5   59.23   16.14
   5   8   6    3.24    5.38
  -5   8  -6   -6.34    6.57
  -5   8  -6    3.51    9.07
  -5   8  -6   13.84    7.71
   5   8   7  238.15   28.94
  -5   8  -7  224.81   32.89
  -5   8  -7  222.44   29.14
  -5   8  -8    6.07    7.81
   5   8   8   20.03    8.20
  -5   8  -8   15.70    8.69
  -5   8  -9   38.00   12.76
   5   8   9   23.85    9.88
  -5   8  -9   18.79    8.76
  -5   8 -10    8.26    6.45
   5   8  10   26.38    9.20
  -5   8 -10   23.26    8.89
  -5   8 -10   42.08   14.53
   5   8  11    8.66    5.66
  -5   8 -11   21.95   10.69
  -5   8 -11   21.46    7.34
   5   8  12   28.00   10.65
  -5   8 -12   17.43   10.46
  -5   8 -12   36.46   11.33
  -5   8 -12   27.38   12.12
   5   8  13   13.48    7.69
  -5   8 -13    1.28    5.43
  -5   8 -13   -1.26    7.53
  -5   8 -14   -3.51    3.46
  -5   8 -14    8.30    5.25
   5   8  15   23.61    6.30
  -5   8 -15   36.19   11.32
  -5   8 -15   42.85   13.30
  -5   8 -16    2.66    3.66
  -5   8 -16    1.00    3.52
  -5   8 -17   11.82    5.29
  -5   8 -17    9.64    5.61
  -5   8 -18    1.50    2.73
  -5   8 -18   -1.17    3.09
  -5   8 -19    1.22    2.94
  -5   8 -19    1.67    2.04
   5   9 -19    9.72    3.33
   5   9 -19    5.36    1.75
   5   9 -18   10.69    3.33
   5   9 -18    9.79    3.23
   5   9 -17    9.82    3.64
   5   9 -17   13.19    4.36
   5   9 -16    1.07    1.72
   5   9 -16    5.64    4.73
   5   9 -15    4.43    3.29
   5   9 -15   15.46    7.25
   5   9 -15   10.16    4.74
   5   9 -14   27.09    8.77
   5   9 -14   30.53   10.30
   5   9 -14   31.84    8.16
   5   9 -13   21.45    7.77
   5   9 -13   24.06   10.69
   5   9 -13   32.67   10.14
   5   9 -12   48.48   12.50
   5   9 -12   57.04   15.23
   5   9 -12   39.09   10.72
   5   9 -11    5.55    5.21
   5   9 -11   -6.22    9.53
   5   9 -11    4.11    4.80
  -5   9  10    2.67    4.12
   5   9 -10    3.55    3.71
   5   9 -10   13.68   10.64
   5   9 -10   12.46    6.42
  -5   9   9  131.58   18.55
   5   9  -9  146.18   23.14
   5   9  -9  108.35   24.17
   5   9  -9   77.45   15.04
  -5   9   8    4.35    4.93
   5   9  -8    3.67    7.40
   5   9  -8    9.95    9.42
  -5   9   7   23.64    8.06
   5   9  -7   35.97   14.29
   5   9  -7   33.65   12.22
  -5   9   7   32.21   11.85
  -5   9   6  131.93   18.25
   5   9  -6  130.88   26.96
   5   9  -6  100.39   20.12
   5   9  -6   74.28   14.86
  -5   9   6   89.22   20.60
  -5   9   5   88.52   15.49
   5   9  -5   95.81   19.11
   5   9  -5   70.45   15.10
  -5   9   5   92.70   22.73
  -5   9   4  262.61   26.38
   5   9  -4  260.76   30.94
   5   9  -4  266.07   28.65
   5   9  -4  206.05   31.15
  -5   9   4  254.36   35.41
  -5   9   3  129.93   19.04
   5   9  -3  147.20   22.93
   5   9  -3  132.83   24.09
   5   9  -3  113.07   18.64
  -5   9   3  137.95   23.45
  -5   9   3  147.49   28.74
  -5   9   2    7.07    4.86
   5   9  -2   11.88    8.28
   5   9  -2   24.65    8.81
  -5   9   2   -1.76    8.41
   5   9  -1   28.82   10.12
  -5   9   1   22.64   12.44
  -5   9   0   14.66    6.40
   5   9   0   25.17   10.18
  -5   9   0    6.90    8.65
  -5   9  -1   21.54    7.22
   5   9   1   29.33   10.24
  -5   9  -1   26.15   10.94
  -5   9  -2   15.93    5.85
   5   9   2   15.03    7.99
  -5   9  -2    1.70    7.53
  -5   9  -2   -6.60    8.92
  -5   9  -2    1.42    5.01
  -5   9  -3  108.66   17.39
   5   9   3  132.89   21.09
  -5   9  -3  130.67   23.91
  -5   9  -3  117.99   23.91
  -5   9  -3  136.50   23.44
  -5   9  -4  243.63   25.85
  -5   9  -4  281.95   33.72
   5   9   4  251.80   29.14
  -5   9  -4  192.89   32.26
  -5   9  -4  254.32   31.83
  -5   9  -5   73.37   13.88
   5   9   5   86.63   17.80
  -5   9  -5   73.41   17.62
  -5   9  -5   95.01   23.38
  -5   9  -6  103.00   17.88
   5   9   6   98.21   18.61
  -5   9  -6  122.42   24.39
  -5   9  -6  109.90   22.41
  -5   9  -7   29.55   11.15
  -5   9  -7   34.88   10.19
   5   9   7   26.03    9.73
  -5   9  -7   29.40   11.55
  -5   9  -7   20.57    7.39
  -5   9  -8   -1.03    3.93
  -5   9  -8   -2.83    7.91
   5   9   8    4.72    4.13
  -5   9  -8    5.14    5.83
  -5   9  -8   -2.73    5.33
  -5   9  -9  101.36   17.81
  -5   9  -9  111.47   20.00
   5   9   9  130.90   21.42
  -5   9  -9  126.65   21.93
  -5   9  -9  141.36   24.26
  -5   9 -10    1.98    4.83
  -5   9 -10    7.78    4.64
   5   9  10   19.06    9.85
  -5   9 -10   12.89    5.74
   5   9  11    8.13    5.15
  -5   9 -11    3.80    7.10
  -5   9 -11    9.00    6.39
   5   9  12   35.86   10.71
  -5   9 -12   58.50   14.69
  -5   9 -12   61.64   12.45
   5   9  13    1.92    4.45
  -5   9 -13   26.37    9.88
   5   9  14   28.78    8.97
  -5   9 -14   31.55   10.69
  -5   9 -14   37.13   10.25
  -5   9 -15    5.58    4.70
  -5   9 -15    7.00    5.31
  -5   9 -16    4.00    4.07
  -5   9 -16    4.51    4.34
  -5   9 -17    8.71    5.56
  -5   9 -17   16.69    6.18
  -5   9 -18    7.38    4.22
  -5   9 -18   15.79    4.72
  -5   9 -19    6.99    3.56
  -5   9 -19    5.52    2.09
   5  10 -18   17.63    4.20
   5  10 -17   14.29    4.61
  -5  10  16   17.52    4.11
   5  10 -16   19.07    5.33
   5  10 -15    7.29    4.44
   5  10 -15   24.09    7.00
   5  10 -14   70.65   13.32
   5  10 -14   52.30   10.58
   5  10 -13   -0.83    5.84
   5  10 -13    1.06    4.24
   5  10 -13    2.46    4.92
   5  10 -12   45.63   11.67
   5  10 -12   66.13   16.42
   5  10 -12   61.23   12.68
   5  10 -11   52.19   13.33
   5  10 -11   63.46   16.75
   5  10 -11   44.85   11.53
   5  10 -10  172.94   30.34
   5  10 -10  153.60   23.31
   5  10 -10  140.92   20.20
  -5  10   9   -0.85    2.81
   5  10  -9   -3.64    6.74
   5  10  -9    1.77    5.04
   5  10  -9    5.28    7.54
   5  10  -9    9.48    4.77
  -5  10   8  268.97   26.79
   5  10  -8  293.08   33.72
   5  10  -8  294.14   27.88
   5  10  -8  286.94   40.41
  -5  10   7   38.45   10.43
   5  10  -7   53.59   15.89
   5  10  -7   33.99   11.37
  -5  10   7   37.80   12.65
  -5  10   6  167.09   20.48
   5  10  -6  146.86   22.79
  -5  10   6  196.78   30.32
  -5  10   5   43.78   10.81
   5  10  -5   31.01   13.56
   5  10  -5   33.56   12.35
  -5  10   5   36.37   15.55
  -5  10   4  728.98   46.52
   5  10  -4  742.24   52.98
   5  10  -4  687.41   47.26
   5  10  -4  635.26   55.31
  -5  10   4  644.20   58.12
  -5  10   3  101.53   16.69
   5  10  -3   97.75   20.61
  -5  10   3  105.73   19.12
   5  10  -3   94.90   17.62
  -5  10   3  107.98   25.36
   5  10  -2  268.17   32.62
   5  10  -2  309.45   31.55
  -5  10   2  283.25   31.48
  -5  10   2  282.02   39.20
   5  10  -1   21.53    8.10
   5  10  -1   22.04    8.99
   5  10  -1   14.31    8.65
  -5  10   1   19.65    7.66
  -5  10   1   30.21   14.40
  -5  10   0  461.49   40.71
   5  10   0  561.90   44.37
   5  10   0  457.90   41.15
   5  10   0  481.56   41.63
  -5  10   0  430.26   48.27
  -5  10   0  560.22   48.29
  -5  10  -1   16.74    7.84
  -5  10  -1   12.12    7.74
   5  10   1   13.74    7.46
   5  10   1   43.42   12.35
   5  10   1   21.18    9.26
  -5  10  -1   14.08    6.80
  -5  10  -1   49.79   13.99
  -5  10  -2  236.57   24.96
   5  10   2  321.14   32.99
  -5  10  -2  280.42   28.60
  -5  10  -2  291.09   31.83
   5  10   2  305.86   32.75
  -5  10  -2  280.60   36.99
  -5  10  -2  286.28   35.01
  -5  10  -3   86.74   15.86
  -5  10  -3   92.10   16.34
   5  10   3  101.87   16.71
   5  10   3  115.59   19.93
  -5  10  -3   93.52   23.00
  -5  10  -3  110.83   19.60
  -5  10  -3   91.05   19.81
  -5  10  -4  633.17   43.91
  -5  10  -4  710.48   52.85
   5  10   4  732.01   51.21
  -5  10  -4  763.85   56.18
  -5  10  -4  646.04   57.82
  -5  10  -5   21.18    7.22
  -5  10  -5   33.56   15.12
   5  10   5   36.79    9.71
  -5  10  -5   31.08   12.41
  -5  10  -5   18.33   10.77
  -5  10  -6  161.47   21.85
  -5  10  -6  168.17   25.64
   5  10   6  174.67   24.03
  -5  10  -6  168.80   28.72
  -5  10  -7   37.05   10.00
  -5  10  -7   28.42   11.25
   5  10   7   43.99   11.82
  -5  10  -7   53.85   15.77
  -5  10  -8  275.87   28.79
   5  10   8  332.62   33.75
  -5  10  -8  363.78   38.15
  -5  10  -8  305.84   34.74
  -5  10  -9    1.95    3.42
  -5  10  -9  -10.50    6.96
   5  10   9    2.26    3.61
  -5  10  -9    2.48    6.34
  -5  10  -9   -1.33    6.67
   5  10  10  137.12   21.16
  -5  10 -10  170.04   25.37
  -5  10 -10  160.05   24.06
  -5  10 -10  162.62   23.78
  -5  10 -10  160.09   22.14
  -5  10 -11   46.80   10.52
   5  10  11   73.42   14.54
  -5  10 -11   45.54   13.00
  -5  10 -11   59.56   12.61
  -5  10 -11   40.91   12.36
   5  10  12   69.96   13.83
  -5  10 -12   57.46   13.62
  -5  10 -12   80.32   13.94
   5  10  13    4.33    5.40
  -5  10 -13    1.03    3.16
   5  10  14   50.20   10.73
  -5  10 -14   70.13   13.65
   5  10  15   20.86    6.24
  -5  10 -15   21.52    8.01
  -5  10 -16   17.10    6.17
  -5  10 -17    6.25    2.77
  -5  10 -17   10.69    5.51
  -5  10 -18   24.92    6.80
  -5  10 -18   34.05    6.85
   5  11 -17   21.25    4.44
   5  11 -16    0.80    2.18
  -5  11  15   33.05    7.62
   5  11 -15   27.76    6.34
  -5  11  14   14.10    5.07
   5  11 -14   15.51    5.38
   5  11 -14   12.61    5.55
   5  11 -13   80.73   15.55
   5  11 -13   79.34   13.76
   5  11 -13   82.17   12.88
   5  11 -12   15.67    6.45
   5  11 -12   22.59   11.20
   5  11 -12   15.11    5.74
   5  11 -11   92.14   16.97
   5  11 -11  116.81   21.79
   5  11 -11  106.93   15.61
   5  11 -10   25.15   10.32
   5  11 -10   11.98   11.74
   5  11 -10   21.80    7.02
   5  11  -9  274.78   26.40
   5  11  -9  297.00   38.69
   5  11  -9  320.59   34.23
   5  11  -8   26.82    9.94
   5  11  -8   11.85    6.71
   5  11  -8   27.00   13.66
  -5  11   7  149.72   19.43
  -5  11   7  155.31   22.90
   5  11  -7  161.50   24.84
   5  11  -7  125.29   17.82
  -5  11   6   14.44    6.78
  -5  11   6    5.26    3.82
   5  11  -6   11.21    7.67
  -5  11   5  410.08   33.49
   5  11  -5  379.25   43.15
  -5  11   5  407.31   42.40
   5  11  -4   94.61   20.01
  -5  11   4  155.55   27.33
   5  11  -3  393.63   41.05
   5  11  -3  387.58   34.78
  -5  11   3  422.46   45.52
   5  11  -2    1.33    5.86
  -5  11   2    9.78    6.23
   5  11  -2    7.34    3.36
   5  11  -2    9.34    7.54
  -5  11   2   20.15    8.95
   5  11  -1  347.36   34.45
   5  11  -1  274.23   32.51
   5  11  -1  300.18   31.55
  -5  11   1  256.88   28.96
  -5  11   1  282.30   29.85
  -5  11   1  227.01   33.80
   5  11   0   70.17   15.85
  -5  11   0   88.31   17.42
   5  11   0  114.11   19.25
   5  11   0   93.77   17.26
  -5  11   0   97.19   18.92
  -5  11   0   72.92   15.57
  -5  11   0   66.33   19.14
   5  11   1  287.16   32.16
   5  11   1  362.28   34.99
  -5  11  -1  222.25   27.52
  -5  11  -1  268.43   28.28
   5  11   1  359.08   35.33
  -5  11  -1  360.05   36.93
  -5  11  -2   11.42    4.89
  -5  11  -2    3.93    3.31
   5  11   2   10.77    4.05
   5  11   2   21.25    8.66
   5  11   2    7.05    3.33
  -5  11  -2    7.49    3.91
  -5  11  -2    7.54    5.44
  -5  11  -3  320.09   29.08
  -5  11  -3  419.67   36.99
  -5  11  -3  346.25   31.62
   5  11   3  455.26   40.21
  -5  11  -3  408.18   39.83
  -5  11  -3  380.91   41.70
  -5  11  -4  147.17   25.06
  -5  11  -4   96.39   16.54
  -5  11  -4  136.29   21.19
   5  11   4  158.47   23.46
  -5  11  -4  102.93   20.05
  -5  11  -5  381.34   32.97
  -5  11  -5  402.38   37.91
   5  11   5  370.91   35.43
  -5  11  -5  407.49   39.62
  -5  11  -5  381.62   41.55
  -5  11  -6   12.54    4.68
  -5  11  -6    4.07    7.31
   5  11   6   11.00    8.05
  -5  11  -6    2.45    4.29
  -5  11  -6   11.31    6.53
  -5  11  -7  110.05   18.04
  -5  11  -7  152.78   24.40
   5  11   7  146.38   22.08
  -5  11  -7  153.07   23.81
  -5  11  -7  155.90   24.47
  -5  11  -8   23.39    9.20
   5  11   8   21.42    9.35
  -5  11  -8   16.84    9.19
   5  11   9  324.91   31.96
  -5  11  -9  333.43   36.06
  -5  11  -9  270.74   30.57
  -5  11  -9  308.37   31.87
  -5  11 -10   20.54    8.65
   5  11  10   27.09    9.17
  -5  11 -10   35.07   10.67
  -5  11 -10   35.45   10.96
  -5  11 -10   29.69   10.78
  -5  11 -11   96.43   15.72
   5  11  11  115.14   17.96
  -5  11 -11  101.50   17.84
  -5  11 -11   86.92   15.23
  -5  11 -11   87.40   17.28
   5  11  12   14.79    5.68
  -5  11 -12   19.86    8.02
  -5  11 -12   23.89    6.33
  -5  11 -12   16.19    6.53
   5  11  13   77.15   12.73
  -5  11 -13   98.07   16.28
  -5  11 -13  100.54   13.23
  -5  11 -13  105.97   18.15
   5  11  14   14.98    5.13
  -5  11 -14   22.86    8.56
  -5  11 -14   17.19    5.73
   5  11  15   24.50    6.31
  -5  11 -15   22.65    6.60
  -5  11 -15   16.65    6.61
   5  11  16   -2.92    1.71
  -5  11 -16   -1.24    2.04
  -5  11 -17   53.56    9.25
   5  12 -16   16.41    3.83
  -5  12  15    4.79    3.21
   5  12 -15   -1.03    2.35
  -5  12  14    1.66    2.43
   5  12 -14    7.30    3.21
   5  12 -14    3.31    2.38
  -5  12  13   -1.98    2.88
   5  12 -13    3.37    3.59
   5  12 -12   53.25   11.24
  -5  12  12   57.36   11.72
   5  12 -12   48.23   11.94
   5  12 -12   27.96    6.91
   5  12 -11   44.92   12.10
  -5  12  11   43.15   10.57
   5  12 -11   68.42   15.40
   5  12 -11   33.14    7.42
   5  12 -10   78.35   15.93
   5  12 -10   61.52   15.33
   5  12  -9    8.66    7.16
   5  12  -9    5.99    4.93
   5  12  -9    7.03    4.85
   5  12  -8  129.49   18.07
   5  12  -8  159.51   23.83
   5  12  -7   10.67    5.61
   5  12  -7   19.62    7.15
  -5  12   6   79.94   15.38
   5  12  -6   56.22   12.13
   5  12  -6   51.81   15.31
  -5  12   5    8.52    7.18
   5  12  -5    7.40    6.27
   5  12  -4  186.84   25.67
   5  12  -4  162.81   26.45
  -5  12   4  194.50   24.40
  -5  12   4  193.47   28.04
  -5  12   3  162.82   25.79
   5  12  -3  171.37   24.11
  -5  12   3  117.92   19.22
   5  12  -3   95.17   19.71
  -5  12   3  172.79   24.37
  -5  12   2  124.51   22.95
   5  12  -2  138.31   21.05
   5  12  -2   93.18   19.15
  -5  12   2   93.44   17.05
   5  12  -2  118.37   19.15
  -5  12   2  104.24   17.03
  -5  12   1   26.85   12.56
   5  12  -1   47.24   13.69
  -5  12   1   17.69    8.84
   5  12  -1   17.57    8.42
   5  12  -1   18.09    8.63
  -5  12   1   34.37   11.02
  -5  12   0  125.16   24.17
   5  12   0  121.54   20.38
  -5  12   0  111.03   17.95
   5  12   0  102.81   19.94
   5  12   0  110.86   19.18
  -5  12   0  108.67   17.28
  -5  12  -1   49.14   14.70
   5  12   1   19.72    7.11
   5  12   1   24.26    8.59
   5  12   1   31.45    9.63
  -5  12  -1   20.74    6.99
  -5  12  -1   30.67   10.96
  -5  12  -1   26.68    8.33
   5  12   2  144.53   20.86
  -5  12  -2  113.92   17.93
   5  12   2  143.48   22.48
   5  12   2  139.99   21.45
  -5  12  -2  109.49   17.67
  -5  12  -2   78.09   16.02
  -5  12  -3  128.72   23.09
  -5  12  -3  115.31   16.67
   5  12   3  177.35   22.86
  -5  12  -3  138.73   20.00
  -5  12  -3  137.55   19.21
   5  12   3  151.49   23.34
  -5  12  -3  137.28   21.90
  -5  12  -4  161.18   20.40
   5  12   4  231.20   25.96
  -5  12  -4  160.67   22.23
  -5  12  -4  171.50   21.05
   5  12   4  188.28   25.49
  -5  12  -4  176.28   25.17
  -5  12  -4  181.47   26.19
  -5  12  -5   -6.30    7.18
  -5  12  -5    8.83    5.39
   5  12   5    7.38    5.30
   5  12   5   15.19    7.72
  -5  12  -5    3.16    5.10
  -5  12  -5   -2.33    5.80
  -5  12  -6   74.30   16.59
   5  12   6   77.37   15.72
  -5  12  -6   82.64   17.55
  -5  12  -6   80.18   16.18
  -5  12  -6   61.01   14.41
  -5  12  -7   21.13    9.16
   5  12   7   18.48    8.11
  -5  12  -7    1.14    5.17
  -5  12  -7   21.52    8.30
  -5  12  -7    7.01    5.62
  -5  12  -8  173.08   24.95
   5  12   8  166.74   22.14
  -5  12  -8  159.24   22.13
  -5  12  -8  136.43   21.89
  -5  12  -8  155.74   22.45
  -5  12  -9   -1.85    5.18
   5  12   9    7.45    5.74
  -5  12  -9   -1.17    4.60
  -5  12  -9   -2.84    6.64
  -5  12 -10   70.76   12.56
   5  12  10   83.34   14.81
  -5  12 -10   90.53   17.56
  -5  12 -10   66.94   12.89
  -5  12 -11   54.15   11.74
   5  12  11   45.49    9.65
  -5  12 -11   47.18   10.37
  -5  12 -11   76.45   15.46
   5  12  12   52.91   11.09
  -5  12 -12   64.35   11.00
  -5  12 -12   70.47   14.12
  -5  12 -12   57.92   11.89
   5  12  13    0.64    4.21
  -5  12 -13    7.39    2.57
  -5  12 -13   10.32    6.29
  -5  12 -13   -3.95    4.14
   5  12  14    4.74    2.85
  -5  12 -14    6.00    5.00
  -5  12 -14    7.00    4.25
   5  12  15    0.41    1.50
  -5  12 -15   -1.93    3.52
  -5  12 -15    1.82    2.97
   5  12  16   19.26    4.40
  -5  12 -16   39.26    8.32
  -5  12 -16   31.97    7.03
  -5  13  15    6.27    3.01
   5  13 -15    2.07    1.42
  -5  13  14    5.90    3.77
   5  13 -14   -0.27    0.88
   5  13 -13    4.24    2.71
  -5  13  13   10.10    4.57
   5  13 -12   -3.15    2.57
  -5  13  12   -2.55    4.06
   5  13 -12    0.75    3.21
   5  13 -11   27.45    8.55
  -5  13  11   15.51    5.72
   5  13 -11   10.71    7.46
   5  13 -10   63.91   12.93
   5  13 -10   53.56   12.89
  -5  13  10   60.74   12.86
   5  13  -9    1.90    4.25
  -5  13   9    0.91    5.46
   5  13  -9    6.65    3.86
   5  13  -8    9.94    4.56
  -5  13   8    5.80    4.86
  -5  13   7   -2.00    5.39
   5  13  -7   17.26    6.75
   5  13  -7   11.66    6.23
  -5  13   6   -0.85    3.12
  -5  13   6   -4.05    6.89
   5  13  -6    2.37    3.28
   5  13  -6   -3.93    4.91
  -5  13   5   -4.90    3.73
   5  13  -5    4.45    5.20
   5  13  -5   -2.50    4.17
   5  13  -5   -2.60    8.03
  -5  13   4   61.21   14.98
  -5  13   4   31.27    9.55
   5  13  -4   44.08   12.71
   5  13  -4   37.19   12.76
  -5  13   4   23.94    7.43
  -5  13   3   47.13   11.68
   5  13  -3   26.57   10.32
  -5  13   3   28.99    9.27
   5  13  -3   39.97   12.06
  -5  13   3   46.08   11.80
  -5  13   2   89.61   19.33
   5  13  -2   78.90   17.01
  -5  13   2   71.35   15.27
   5  13  -2   63.32   13.26
  -5  13   2   92.17   16.65
  -5  13   1   12.73    4.87
   5  13  -1   -1.24    7.91
   5  13  -1    3.02    4.49
   5  13  -1   13.37    7.77
  -5  13   1   15.04    5.58
  -5  13   1    5.92    5.84
  -5  13   1   -3.44    5.61
  -5  13   0  105.88   21.57
   5  13   0   86.44   17.58
   5  13   0   95.37   16.25
   5  13   0  102.26   17.05
  -5  13   0   85.79   14.90
  -5  13   0   81.40   15.76
  -5  13   0   82.94   17.15
  -5  13  -1   15.10    7.75
  -5  13  -1   13.07    7.22
   5  13   1    2.43    4.79
   5  13   1   16.54    7.86
   5  13   1   -1.05    6.48
  -5  13  -1   11.11    6.15
  -5  13  -1   11.09    7.02
   5  13   2   99.99   16.85
  -5  13  -2   78.98   14.20
   5  13   2   88.81   16.32
  -5  13  -2   68.92   12.91
  -5  13  -2   69.85   14.37
  -5  13  -2   69.03   15.29
  -5  13  -3   38.92   10.17
  -5  13  -3   33.36    9.07
   5  13   3   40.49   10.82
   5  13   3   42.31   11.03
  -5  13  -3   50.81   11.23
  -5  13  -3   25.36   10.86
  -5  13  -3   45.48   11.65
  -5  13  -4   46.34   13.73
  -5  13  -4   45.20   10.74
   5  13   4   46.83   11.30
   5  13   4   46.93   13.30
  -5  13  -4   36.38    9.85
  -5  13  -4   22.07    9.92
  -5  13  -4   54.01   12.57
  -5  13  -5   -2.17    5.86
   5  13   5    7.52    5.08
   5  13   5   -1.02    3.64
  -5  13  -5   -3.13    6.02
  -5  13  -5    4.63    4.14
  -5  13  -6   -2.07    3.77
   5  13   6    3.94    4.49
   5  13   6   -2.41    3.28
  -5  13  -6    3.86    4.67
  -5  13  -6    8.46    5.55
  -5  13  -7   10.49    5.70
   5  13   7   24.54    7.59
   5  13   7   19.28    7.09
  -5  13  -7   19.21    8.18
  -5  13  -7    8.01    3.47
  -5  13  -7    8.44    6.16
  -5  13  -8   10.41    5.20
   5  13   8   25.22    7.77
   5  13   8   12.94    6.39
  -5  13  -8   14.09    6.55
  -5  13  -8   17.44    7.25
  -5  13  -8   18.48    8.18
  -5  13  -9    6.25    4.20
   5  13   9   15.16    5.70
   5  13   9   -4.07    4.75
  -5  13  -9    9.52    6.20
  -5  13  -9    7.10    4.97
  -5  13  -9    1.96    3.27
  -5  13 -10   59.46   11.41
   5  13  10   78.75   11.98
   5  13  10   56.46   11.24
  -5  13 -10   38.45    9.29
  -5  13 -10   62.10   13.44
  -5  13 -10   56.27   12.66
  -5  13 -11   16.68    5.80
   5  13  11    6.30    3.13
  -5  13 -11   18.69    7.36
  -5  13 -11   13.87    4.57
   5  13  12    6.84    3.40
  -5  13 -12    2.01    3.01
  -5  13 -12    1.59    2.44
   5  13  13   -0.53    3.07
  -5  13 -13   -2.75    3.47
  -5  13 -13    6.21    4.30
   5  13  14   -1.71    1.68
  -5  13 -14    0.59    2.60
  -5  13 -14    0.57    2.83
   5  13  15    3.29    1.82
  -5  13 -15   -0.94    2.48
  -5  13 -15    3.38    2.44
  -5  14  14    2.27    1.42
  -5  14  13   11.01    4.03
  -5  14  12   21.36    5.54
   5  14 -12   10.05    4.41
   5  14 -11   12.36    4.79
   5  14 -11   10.75    5.65
  -5  14  11    9.56    5.62
  -5  14  10   -4.86    3.10
  -5  14   9    9.34    4.16
  -5  14   8   24.42    8.05
   5  14  -8   31.45    8.52
   5  14  -8   22.26    7.73
  -5  14   7   12.40    6.33
   5  14  -7    2.78    6.07
   5  14  -7   15.24    5.96
   5  14  -7   14.31    7.08
  -5  14   6   18.20    7.71
   5  14  -6   16.45    7.01
   5  14  -6   14.82    5.79
   5  14  -6   14.78    6.42
  -5  14   5   37.36   10.10
   5  14  -5   24.65    8.56
   5  14  -5   26.99    8.40
   5  14  -5   29.15   10.95
  -5  14   4   35.52    9.82
   5  14  -4   42.46   11.69
   5  14  -4   34.89    9.33
   5  14  -4   33.99   11.43
  -5  14   4   28.46    8.48
  -5  14   4   29.80    8.49
  -5  14   3   55.30   13.10
   5  14  -3   59.56   13.37
   5  14  -3   46.74   10.23
   5  14  -3   61.07   14.64
  -5  14   3   51.15   11.95
  -5  14   3   59.58   12.09
  -5  14   2   -3.05    5.45
   5  14  -2    3.83    2.77
  -5  14   2    0.90    5.53
   5  14  -2   11.21    5.15
  -5  14   2    8.82    5.08
  -5  14   1    8.42    5.12
   5  14  -1    2.80    4.31
  -5  14   1   -0.90    3.65
   5  14  -1   15.75    8.63
  -5  14   1   -0.95    5.11
  -5  14   0   92.65   16.81
   5  14   0   88.90   15.85
  -5  14   0   72.01   13.08
  -5  14   0   65.10   13.53
   5  14   0   72.23   15.28
  -5  14   0   75.79   15.18
  -5  14  -1    9.51    6.73
   5  14   1   10.38    6.40
  -5  14  -1   11.71    7.35
   5  14   1    6.87    5.46
  -5  14  -1    3.76    3.75
   5  14   1   -2.12    5.42
  -5  14  -1   14.38    7.24
  -5  14  -2    9.50    6.11
   5  14   2    3.29    3.59
   5  14   2    0.94    3.33
  -5  14  -2  -10.30    9.31
  -5  14  -2   -7.48    5.99
  -5  14  -3   47.85   10.43
   5  14   3   76.80   13.21
   5  14   3   57.24   12.66
  -5  14  -3   55.65   13.49
  -5  14  -3   50.55   11.03
  -5  14  -3   56.67   11.68
  -5  14  -4   22.78    9.06
  -5  14  -4   34.93    7.68
   5  14   4   40.30    9.82
   5  14   4   34.33    9.38
  -5  14  -4   28.57    8.96
  -5  14  -4   35.04   10.48
  -5  14  -4   26.09    7.84
  -5  14  -5   30.85    8.95
   5  14   5   23.85    8.53
   5  14   5   34.94    8.50
  -5  14  -5   23.19    7.69
  -5  14  -5   23.42    7.79
  -5  14  -6    4.31    5.73
   5  14   6   17.28    6.06
   5  14   6   24.02    8.14
  -5  14  -6   11.61    5.46
  -5  14  -6    0.92    3.46
  -5  14  -7    9.53    4.62
   5  14   7    9.53    4.96
   5  14   7   15.48    5.89
  -5  14  -7    6.36    5.42
  -5  14  -7   20.46    8.09
  -5  14  -7   10.07    5.13
  -5  14  -8   22.34    6.77
   5  14   8   43.88    8.98
   5  14   8   21.48    6.46
  -5  14  -8   34.16    9.16
  -5  14  -8   20.58    7.70
  -5  14  -8   25.73    8.97
  -5  14  -9    4.51    3.52
   5  14   9    9.67    4.47
  -5  14  -9    7.54    5.22
  -5  14  -9    5.90    4.42
  -5  14  -9    8.33    5.46
  -5  14 -10   -0.56    2.22
   5  14  10    1.27    1.96
  -5  14 -10    0.57    2.36
  -5  14 -10   -1.57    2.36
  -5  14 -10    2.29    4.09
  -5  14 -11    5.74    3.91
   5  14  11   16.11    5.09
  -5  14 -11    3.54    2.73
  -5  14 -11   11.70    4.58
  -5  14 -11    8.86    4.94
   5  14  12   12.56    4.74
  -5  14 -12   12.31    4.13
  -5  14 -12    7.87    3.78
  -5  14 -12   11.95    5.35
   5  14  13    1.26    1.65
  -5  14 -13   -0.29    1.83
   5  14  14    5.00    2.59
  -5  14 -14    1.20    1.74
  -5  15  13    1.28    1.97
  -5  15  12    7.72    2.76
  -5  15  11    8.03    3.46
  -5  15  10   13.47    4.44
  -5  15   9    0.62    3.39
   5  15  -9   -0.64    3.49
   5  15  -8    4.73    2.10
  -5  15   8    5.53    4.07
   5  15  -8    2.02    2.74
   5  15  -8    0.71    2.78
   5  15  -7   27.37    8.35
   5  15  -7   31.12    8.42
   5  15  -7   33.14    7.44
  -5  15   7   25.89    7.72
   5  15  -6   -0.79    3.09
   5  15  -6    1.79    2.84
  -5  15   6   -3.85    5.64
   5  15  -6    0.80    4.17
  -5  15   5   11.91    4.33
   5  15  -5    7.38    4.81
   5  15  -5   12.14    4.90
   5  15  -5   15.99    7.15
  -5  15   4   58.53   10.76
   5  15  -4   51.79   11.52
   5  15  -4   53.03   10.20
  -5  15   4   65.72   13.33
   5  15  -4   62.80   13.32
  -5  15   4   53.36    9.78
  -5  15   3   28.03    7.73
   5  15  -3   26.76    8.08
   5  15  -3   20.08    6.25
  -5  15   3   20.45    7.31
   5  15  -3   19.72    7.02
  -5  15   3   28.62    7.05
  -5  15   2   -0.80    3.22
  -5  15   2    8.54    6.72
   5  15  -2   -0.82    3.44
   5  15  -2   -3.01    2.77
   5  15  -2    5.45    5.72
  -5  15   2   -1.43    3.16
  -5  15   1   13.43    6.74
   5  15  -1   31.84    8.02
  -5  15   1   28.28    8.19
   5  15  -1   26.12    8.43
  -5  15   1   20.00    7.26
  -5  15   0    6.89    3.85
   5  15   0    8.41    6.11
  -5  15   0    1.50    4.67
   5  15   0   -2.57    3.75
  -5  15   0   -3.25    4.98
  -5  15  -1   39.44   10.31
  -5  15  -1   27.10    8.85
   5  15   1   27.15    7.94
  -5  15  -1   22.60    7.38
  -5  15  -2   -1.68    4.18
  -5  15  -2   -3.34    6.12
   5  15   2    2.11    2.64
   5  15   2    3.22    3.79
  -5  15  -2    3.37    6.18
  -5  15  -3   21.61    6.34
   5  15   3   20.85    6.15
  -5  15  -3   22.85    6.59
   5  15   3   28.62    7.79
  -5  15  -3   23.17    8.58
  -5  15  -4   52.80   11.00
   5  15   4   63.32   10.91
   5  15   4   53.95   11.49
  -5  15  -4   43.72    8.89
  -5  15  -4   45.36   10.54
  -5  15  -4   57.69   10.79
  -5  15  -5   16.17    6.42
   5  15   5   14.46    5.65
   5  15   5   19.36    7.10
  -5  15  -5    6.03    4.22
  -5  15  -5    1.99    2.35
  -5  15  -5   13.40    6.29
  -5  15  -6   -3.46    4.61
   5  15   6   -0.56    2.60
   5  15   6   -2.81    3.73
  -5  15  -6   -3.05    4.97
  -5  15  -6   -4.06    4.36
  -5  15  -7   26.41    7.13
   5  15   7   30.96    8.07
  -5  15  -7   32.24    8.96
  -5  15  -7   22.47    7.03
  -5  15  -7   24.30    6.87
  -5  15  -8    6.95    5.34
   5  15   8    1.84    3.34
  -5  15  -8   -1.76    3.64
  -5  15  -8    5.33    4.00
  -5  15  -8    1.46    2.63
  -5  15  -9    2.05    3.59
   5  15   9   -1.14    3.29
  -5  15  -9   -1.58    2.90
  -5  15  -9    3.76    4.29
  -5  15  -9    2.72    2.65
  -5  15 -10   -0.88    3.30
   5  15  10    4.65    3.44
  -5  15 -10    6.79    4.10
  -5  15 -10    1.82    3.05
  -5  15 -10   11.00    4.73
  -5  15 -11    4.02    2.88
   5  15  11    6.85    4.26
  -5  15 -11   -0.38    2.44
  -5  15 -11    4.88    2.98
  -5  15 -11    7.48    3.02
   5  15  12    9.28    3.78
  -5  15 -12    5.87    2.39
  -5  15 -12    8.41    2.98
  -5  15 -12   15.53    4.97
   5  15  13    0.31    1.66
  -5  15 -13    1.26    1.23
  -5  15 -13    3.05    1.63
  -5  16  11   15.51    3.64
  -5  16  10    9.90    4.19
  -5  16   9    3.21    2.92
   5  16  -9    3.40    2.73
   5  16  -9   -1.32    1.95
   5  16  -8    5.85    3.38
  -5  16   8   -3.14    4.32
   5  16  -8    1.47    3.01
   5  16  -7    5.46    3.25
  -5  16   7    4.03    2.35
   5  16  -7   12.04    4.03
   5  16  -7    5.89    3.95
   5  16  -6    4.16    3.99
   5  16  -6   -2.88    3.67
  -5  16   6    0.61    3.86
   5  16  -6    0.47    2.14
   5  16  -5   22.74    7.25
   5  16  -5   18.28    6.44
   5  16  -5   24.53    6.26
  -5  16   4   10.00    4.38
   5  16  -4    3.93    2.58
  -5  16   4   10.14    5.12
   5  16  -4   -1.09    3.48
   5  16  -4    8.89    5.34
  -5  16   3   24.02    6.70
   5  16  -3   27.63    7.29
   5  16  -3   24.39    6.86
  -5  16   3   22.73    6.77
   5  16  -3   19.49    6.06
  -5  16   3   24.67    6.12
  -5  16   2    4.82    3.85
   5  16  -2    0.65    2.26
  -5  16   2   -1.88    3.96
   5  16  -2    3.04    3.66
   5  16  -2   -1.29    3.66
  -5  16   2   -1.68    3.28
  -5  16   1    4.51    4.91
   5  16  -1    1.89    3.80
   5  16  -1   -0.61    2.76
   5  16  -1    1.91    2.30
  -5  16   1    0.61    4.52
  -5  16   1    1.22    2.34
  -5  16   0    6.67    5.06
  -5  16   0   10.79    5.67
   5  16   0    6.19    2.76
  -5  16   0   -0.65    3.26
  -5  16  -1    3.36    4.53
  -5  16  -1   -1.14    2.62
   5  16   1    6.57    3.73
  -5  16  -1    2.67    3.86
  -5  16  -2   -3.97    2.41
  -5  16  -2    1.61    3.65
   5  16   2    0.57    2.43
  -5  16  -2    0.67    3.25
   5  16   3   32.57    6.93
   5  16   3   25.75    7.36
  -5  16  -3   27.09    6.47
  -5  16  -3   13.25    6.23
  -5  16  -4    3.67    2.25
   5  16   4   10.64    4.77
   5  16   4    4.31    1.90
  -5  16  -4   10.66    4.12
  -5  16  -4    8.91    4.75
  -5  16  -5   12.11    5.52
   5  16   5   15.71    4.88
   5  16   5   16.56    4.67
  -5  16  -5   18.00    5.77
  -5  16  -6   -0.54    3.47
   5  16   6    1.65    2.93
  -5  16  -7    4.99    2.43
   5  16   7    7.21    3.80
  -5  16  -7    3.05    2.99
  -5  16  -7    0.94    1.47
  -5  16  -8   -1.34    2.84
   5  16   8    5.72    3.20
  -5  16  -8    0.92    2.77
  -5  16  -8   -0.44    2.63
  -5  16  -8    1.13    2.70
  -5  16  -9    6.22    3.04
   5  16   9    3.91    2.61
  -5  16  -9    6.52    3.53
  -5  16  -9   -1.20    1.35
  -5  16  -9    7.71    3.74
  -5  16 -10    4.25    2.25
   5  16  10    6.19    2.47
  -5  16 -10    7.54    2.33
  -5  16 -10   13.54    4.38
  -5  16 -10    9.84    3.39
   5  16  11   18.26    4.47
  -5  16 -11   10.07    3.19
  -5  16 -11   12.08    3.17
  -5  16 -11   13.23    4.26
  -5  17   9   27.44    5.17
  -5  17   8    4.36    3.07
   5  17  -7    3.29    2.37
  -5  17   7    6.17    3.06
   5  17  -6    3.64    2.73
   5  17  -6    1.14    2.08
   5  17  -6    1.04    2.19
  -5  17   6    5.78    4.06
   5  17  -5   14.30    4.77
   5  17  -5   19.43    4.67
   5  17  -5   18.52    5.14
   5  17  -4   30.89    6.71
  -5  17   4   33.66    6.84
   5  17  -4   35.89    6.70
   5  17  -4   20.71    5.73
  -5  17   3   18.96    5.16
   5  17  -3   27.55    6.67
  -5  17   3   16.19    4.86
   5  17  -3   16.30    4.95
   5  17  -3   14.77    4.54
  -5  17   3   14.08    4.18
  -5  17   2    6.05    2.30
  -5  17   2    7.99    3.87
   5  17  -2    6.13    2.64
   5  17  -2    8.82    2.98
  -5  17   2    3.33    2.65
  -5  17   1   28.73    6.83
  -5  17   1   22.56    5.54
   5  17  -1   28.13    6.56
   5  17  -1   17.38    5.16
  -5  17   1   33.17    6.92
  -5  17   0   -2.47    3.60
   5  17   0    7.42    4.35
  -5  17   0    5.37    3.15
   5  17   0    0.46    1.93
  -5  17   0    3.46    3.91
  -5  17  -1   24.66    6.55
   5  17   1   25.29    5.77
  -5  17  -1   25.51    5.35
  -5  17  -1   24.21    5.82
  -5  17  -2    5.99    3.80
   5  17   2    5.87    3.23
  -5  17  -2    4.02    2.00
  -5  17  -2    4.17    3.16
   5  17   3   19.65    4.53
  -5  17  -3   16.91    4.46
  -5  17  -3   15.37    4.77
  -5  17  -4   24.37    5.33
   5  17   4   38.78    6.94
  -5  17  -4   40.77    8.16
  -5  17  -5   19.90    5.20
   5  17   5   28.02    6.38
  -5  17  -5   35.48    7.49
  -5  17  -6   -1.60    1.59
   5  17   6    5.37    2.77
  -5  17  -7    6.92    2.80
   5  17   7   10.79    3.59
  -5  17  -7    6.13    3.47
  -5  17  -8   -1.62    2.64
   5  17   8    0.35    1.49
  -5  17  -8    1.02    2.14
   5  17   9   28.90    5.19
  -5  17  -9   18.11    4.19
  -5  18   6    0.59    1.74
   5  18  -5    4.60    2.10
   5  18  -5    2.04    1.60
  -5  18   4    6.89    3.20
   5  18  -4    6.01    2.60
   5  18  -4    4.29    1.77
  -5  18   3   16.28    4.09
   5  18  -3   11.68    3.13
   5  18  -3    7.44    2.45
  -5  18   2    1.65    1.84
   5  18  -2    5.81    2.73
   5  18  -2    6.61    2.67
  -5  18   2    7.49    2.93
  -5  18   1    2.86    2.17
   5  18  -1    3.17    2.29
   5  18  -1    2.43    2.28
  -5  18   1    0.97    1.43
  -5  18   1   -2.58    2.67
  -5  18   0    0.34    2.31
   5  18   0   -0.55    1.59
   5  18   0   -2.15    2.68
  -5  18   0    1.25    2.21
  -5  18   0   -0.35    2.25
  -5  18  -1    3.89    2.85
   5  18   1   -0.71    2.10
  -5  18  -1   -0.30    2.32
  -5  18  -1   -0.75    2.11
  -5  18  -2    0.35    1.65
   5  18   2    3.16    2.12
  -5  18  -2    4.98    1.98
  -5  18  -2    4.19    2.83
  -5  18  -3   15.10    4.12
  -5  18  -3   18.10    3.63
  -5  18  -3   13.48    4.40
  -5  18  -4    3.22    2.04
  -5  18  -5    4.55    2.78
  -5  18  -5    3.32    2.59
   5  18   6   -0.88    1.43
   6   0 -20    7.08    2.55
   6   0 -20    8.52    4.55
   6   0 -19   -1.92    2.30
   6   0 -18   45.56   10.95
   6   0 -17   24.13    8.39
   6   0 -16   36.48   11.79
   6   0 -15    2.89    4.53
   6   0 -14    8.34   10.46
  -6   0  13   16.32    9.26
   6   0 -13   22.46   14.43
  -6   0  12  440.06   55.44
   6   0 -12  430.21   51.11
  -6   0  11    6.28    5.58
   6   0 -11   11.59    9.25
  -6   0  10  426.42   50.73
   6   0 -10  358.74   44.46
   6   0  -9   21.27    9.81
  -6   0   9   -1.74   10.38
   6   0  -9   10.42    6.43
  -6   0   8  604.40   55.48
   6   0  -8  495.28   46.07
   6   0  -7    4.02    7.70
  -6   0   7    5.73    4.05
  -6   0   6   28.07   12.05
   6   0  -6   20.90    9.52
  -6   0   5   76.09   18.23
   6   0  -5   77.11   17.67
  -6   0   4 7394.61  230.54
   6   0  -4 7440.06  234.00
  -6   0   3   30.31    9.31
   6   0  -3   40.21   12.88
  -6   0   2  175.72   24.21
   6   0  -2  225.61   28.49
  -6   0   1    3.30    4.63
   6   0  -1   -2.56    4.98
  -6   0   0 1798.49   85.09
   6   0   0 2039.64   94.03
  -6   0  -1    1.12    4.70
  -6   0  -1   -3.63    4.80
  -6   0  -2  226.84   27.70
  -6   0  -2  190.69   25.98
  -6   0  -3   36.36   13.89
  -6   0  -3   25.30    9.00
  -6   0  -4 9097.72  277.85
  -6   0  -4 8606.52  268.59
  -6   0  -5   99.99   21.59
  -6   0  -5  107.44   21.58
  -6   0  -6   17.50    6.53
  -6   0  -6   23.80   13.98
  -6   0  -7    2.78    7.09
  -6   0  -7   -6.09    6.90
  -6   0  -8  557.97   53.61
  -6   0  -8  498.70   49.95
  -6   0  -9    9.81    5.72
   6   0   9    5.81    6.63
  -6   0 -10  347.46   45.24
   6   0  10  284.97   44.14
  -6   0 -11    8.18    8.53
   6   0  11   18.10   14.02
   6   0  12  418.83   55.50
  -6   0 -13   40.39   18.12
   6   0  13   28.15   14.45
   6   0  14    2.08   12.58
   6   0  15   12.28    9.83
   6   0  16   36.81   13.92
   6   0  17   14.41    7.88
   6   0  18   49.08   11.72
   6   0  19    1.90    2.51
   6   0  20    8.21    3.65
   6  -1 -20   -2.34    2.83
   6   1 -20    2.06    2.50
   6  -1 -19   33.19    8.46
   6  -1 -18   15.38    6.28
   6  -1 -17   75.84   15.60
   6  -1 -16   14.46    7.84
   6  -1 -15   29.99   10.48
   6  -1 -14   46.19   15.45
  -6  -1  13   31.67   17.99
   6  -1 -13   38.76   15.45
  -6  -1  12   23.88   13.27
   6  -1 -12   42.27   14.89
  -6  -1  11  252.72   41.08
   6  -1 -11  277.61   39.22
  -6  -1  10  133.89   29.35
   6  -1 -10  154.25   29.13
  -6  -1   9  383.95   46.48
   6  -1  -9  317.38   38.31
   6  -1  -9  385.61   45.22
   6  -1  -8  132.06   22.87
  -6  -1   8  126.27   25.98
  -6  -1   7    9.91    6.75
   6  -1  -7    5.18    4.53
  -6  -1   6  273.36   32.88
   6  -1  -6  316.81   34.65
  -6  -1   5 1198.72   72.24
   6  -1  -5 1220.11   71.39
  -6  -1   4  159.27   23.45
   6  -1  -4  173.40   25.07
  -6  -1   3 2953.26  118.23
   6  -1  -3 3072.75  122.64
  -6  -1   2 1382.42   72.46
   6  -1  -2 1456.67   77.45
  -6  -1   1  210.19   25.46
   6  -1  -1  215.36   27.77
  -6  -1   0   34.01   11.25
   6  -1   0   48.24   14.26
  -6  -1  -1  202.34   25.67
  -6  -1  -1  198.67   26.30
  -6  -1  -2 1423.72   75.62
  -6  -1  -2 1492.76   80.14
  -6  -1  -3 3395.13  136.19
  -6  -1  -3 3217.56  128.69
  -6  -1  -4  208.07   29.88
  -6  -1  -4  178.30   26.12
  -6  -1  -5 1349.34   81.87
  -6  -1  -5 1386.55   78.87
  -6  -1  -6  324.83   38.94
  -6  -1  -6  305.26   34.98
  -6  -1  -7    1.33    8.51
  -6  -1  -7    1.46    8.05
  -6  -1  -8  110.92   24.19
  -6  -1  -8  145.84   26.69
  -6  -1  -9  361.10   41.85
   6  -1   9  278.09   42.39
  -6  -1 -10  123.68   27.19
   6  -1  10   83.34   24.30
  -6  -1 -11  249.55   39.46
   6  -1  11  309.52   47.15
   6  -1  12   50.16   19.76
  -6  -1 -13   66.33   21.71
   6  -1  13   59.31   19.27
   6  -1  14   18.78   11.17
   6  -1  15   15.88   12.32
   6  -1  16   30.01   13.42
   6  -1  17   63.61   15.83
   6  -1  18    3.39    3.22
   6  -1  19   22.60    7.09
   6  -1  20   -4.48    3.76
   6  -2 -20    7.20    2.49
   6   2 -20    6.03    2.03
   6   2 -20    9.76    4.38
   6  -2 -20    8.52    3.73
   6  -2 -19    6.88    3.98
   6   2 -19    6.51    4.12
   6  -2 -18   50.91   11.63
   6   2 -18   29.44    7.97
   6   2 -17   -1.87    4.77
   6  -2 -17    5.89    6.89
   6  -2 -16   13.04    7.59
   6   2 -16    5.65    6.15
   6  -2 -15   22.48    9.22
   6   2 -15   13.43    7.67
   6  -2 -14    1.63    6.38
   6   2 -14    6.24    7.79
  -6  -2  13   -2.04    8.24
  -6   2  13   14.23    8.12
   6  -2 -13   10.96   10.06
   6   2 -13   17.59    9.74
  -6  -2  12   41.60   17.73
  -6   2  12   53.35   16.05
   6  -2 -12   34.54   16.46
   6   2 -12   31.56   14.00
  -6  -2  11  124.58   28.27
  -6   2  11  111.20   22.63
   6  -2 -11  116.16   25.58
   6   2 -11  135.27   27.49
  -6  -2  10  280.56   42.41
  -6   2  10  337.43   38.51
   6  -2 -10  337.83   42.17
   6   2 -10  325.49   41.47
   6  -2  -9   35.65   12.29
   6   2  -9   45.56   14.60
  -6  -2   9   52.19   18.10
  -6   2   9   49.09   16.30
   6  -2  -9   37.25   12.53
   6   2  -9   43.39   15.29
   6  -2  -8   17.84    8.39
   6   2  -8   24.59   11.20
  -6  -2   8    7.60    5.08
  -6   2   8   12.74    7.08
  -6  -2   7  354.22   39.50
  -6   2   7  340.82   36.33
   6  -2  -7  327.14   35.58
   6   2  -7  341.61   36.18
  -6  -2   6   30.89   12.56
  -6   2   6   31.10   12.33
   6  -2  -6   25.81    8.67
   6   2  -6   18.54    6.65
   6  -2  -6   13.37    5.82
   6   2  -6   19.01    9.72
  -6  -2   5  210.15   28.87
  -6   2   5  210.45   27.07
   6  -2  -5  243.79   29.68
   6   2  -5  237.25   29.30
   6  -2  -5  196.78   27.53
   6   2  -5  244.06   30.17
  -6  -2   4  926.86   59.36
  -6   2   4  898.24   56.47
   6  -2  -4  822.11   57.10
   6   2  -4  843.91   58.07
  -6  -2   3  633.96   46.66
  -6   2   3  571.25   43.36
   6  -2  -3  547.99   45.09
   6   2  -3  584.39   45.94
  -6  -2   2 1701.69   81.25
  -6   2   2 1637.33   79.14
   6  -2  -2 1923.71   89.65
   6   2  -2 1777.21   84.26
  -6  -2   1  585.11   42.65
  -6   2   1  480.88   37.96
   6   2  -1  556.56   43.06
   6  -2  -1  569.33   44.85
  -6   2   0 1251.08   64.22
  -6  -2   0 1310.46   68.78
   6  -2   0 1363.93   72.62
   6   2   0 1361.67   71.44
  -6  -2  -1  577.93   46.16
  -6   2  -1  532.19   40.21
  -6   2  -1  546.29   42.31
  -6  -2  -1  581.94   44.54
  -6   2  -2 1872.88   88.32
  -6   2  -2 1828.40   85.25
  -6  -2  -2 1903.38   87.68
  -6  -2  -2 1846.17   89.91
  -6  -2  -3  664.10   50.12
  -6  -2  -3  615.99   50.05
  -6   2  -3  676.40   50.59
  -6   2  -3  623.43   50.59
  -6   2  -4 1059.97   69.32
  -6  -2  -4  939.73   62.64
  -6   2  -4 1004.52   65.20
  -6  -2  -4 1022.40   67.32
  -6  -2  -5  240.60   31.83
  -6  -2  -5  262.34   32.26
  -6   2  -5  262.94   32.48
  -6   2  -5  228.85   32.05
  -6  -2  -6   29.86   10.44
  -6   2  -6   22.83   10.04
  -6  -2  -6   19.21   10.23
  -6   2  -6   22.36    7.27
  -6   2  -7  359.22   41.40
  -6  -2  -7  304.49   35.77
  -6   2  -7  388.21   41.40
  -6  -2  -7  392.62   41.78
  -6  -2  -8   33.35   11.63
  -6   2  -8    9.91    9.48
  -6  -2  -8   38.94   14.68
  -6   2  -8   22.87   12.01
  -6  -2  -9   45.04   15.14
  -6   2  -9   55.19   17.77
   6  -2   9   57.25   18.12
   6   2   9   30.47   11.73
  -6   2  -9   23.28   12.00
   6  -2  10  320.66   44.17
   6   2  10  304.41   42.09
  -6  -2 -10  278.10   40.35
  -6   2 -10  277.64   40.63
  -6   2 -10  233.15   38.35
  -6  -2 -11  124.23   27.86
  -6   2 -11  118.97   27.64
   6  -2  11  135.65   31.20
   6   2  11  110.20   26.92
  -6   2 -11  104.72   26.97
   6  -2  12   56.43   20.54
   6   2  12   34.83   16.53
  -6   2 -12   32.52   15.93
  -6   2 -13   16.64    9.05
  -6  -2 -13   36.16   15.19
   6  -2  13   19.48   11.59
   6   2  13   23.43   14.53
  -6   2 -13    4.19   10.93
   6  -2  14    4.09    6.35
   6   2  14    1.76    9.42
  -6   2 -14   11.45    8.01
   6  -2  15   27.92   11.89
   6   2  15   43.52   14.44
  -6   2 -15   26.35   11.64
   6  -2  16   11.32    9.64
   6   2  16    1.22    5.99
  -6   2 -16    2.70    5.86
   6  -2  17   -1.10    4.84
   6   2  17   -1.92    3.51
  -6   2 -17    9.57    5.46
   6  -2  18   44.89   11.07
   6   2  18   39.93   10.42
   6   2  19    8.92    3.86
   6  -2  19    3.64    3.01
   6   2  20    5.71    2.78
   6  -2  20   14.05    4.68
   6  -3 -20   -1.05    1.23
   6   3 -20    2.88    2.39
   6   3 -20    2.97    1.95
   6  -3 -20    3.93    2.89
   6  -3 -19   23.33    6.64
   6   3 -19   17.21    6.19
   6  -3 -18    7.67    5.31
   6   3 -18    4.29    4.27
   6  -3 -17    2.84    3.74
   6   3 -17    1.77    4.33
   6   3 -16    1.08    3.35
   6  -3 -16    1.15    3.89
   6  -3 -15   12.27    6.86
   6   3 -15   11.55    7.05
   6  -3 -14   -3.17    8.57
   6   3 -14   -1.50    4.66
   6  -3 -13   -1.79    7.07
   6   3 -13    6.80   11.93
  -6  -3  13    3.75    6.26
  -6   3  13    8.40    5.19
   6  -3 -12   -1.92    5.98
   6   3 -12   10.97    8.36
  -6  -3  12   13.17   13.47
  -6   3  12   -3.81    6.78
   6  -3 -11  274.72   40.04
   6   3 -11  303.31   41.36
  -6  -3  11  243.13   40.81
  -6   3  11  311.98   36.25
   6   3 -10    8.85    9.23
   6  -3 -10   31.29   14.63
  -6  -3  10   10.21    7.92
  -6   3  10    5.10    4.97
   6  -3  -9   37.70   16.63
   6   3  -9   26.62   13.75
   6   3  -9   31.28   12.10
   6  -3  -9   36.14   11.22
   6   3  -9   29.35   11.55
  -6  -3   9   20.38   11.70
  -6   3   9   29.19   11.33
  -6  -3   8    8.63    8.87
  -6   3   8    9.30    5.01
   6  -3  -8   13.79    5.25
   6   3  -8   13.57    6.74
   6  -3  -8   25.32   11.38
   6   3  -8   13.97    9.10
  -6  -3   7    2.67    5.54
  -6   3   7    5.60    4.62
   6  -3  -7    5.08    6.40
   6   3  -7    8.81    7.04
  -6  -3   6   26.31    9.63
  -6   3   6   20.79    7.98
   6  -3  -6   26.62   10.17
   6   3  -6   31.32   11.77
   6  -3  -6   25.32    9.94
   6   3  -6   12.60    7.43
   6  -3  -5   82.82   17.42
   6   3  -5   67.28   15.99
  -6  -3   5   60.45   16.00
  -6   3   5   49.50   13.25
   6  -3  -5   67.69   15.46
   6   3  -5   46.78   14.10
  -6  -3   4   32.57    9.95
  -6   3   4   24.19    9.72
   6   3  -4   12.49    4.18
   6  -3  -4   27.97   10.09
  -6  -3   3 2098.14   93.54
  -6   3   3 2071.91   91.32
   6  -3  -3 2194.96   97.18
   6   3  -3 2239.05   97.25
  -6   3   2  121.44   18.32
   6   3  -2  121.41   20.04
  -6  -3   2  127.78   19.79
   6  -3  -2  151.25   23.58
  -6   3   1  205.80   23.55
  -6  -3   1  208.32   25.63
   6  -3  -1  184.60   25.21
   6   3  -1  180.01   24.22
  -6  -3   0    4.12    9.48
  -6   3   0    1.81    6.49
  -6  -3   0    2.22    5.61
  -6   3   0   10.76    6.19
  -6  -3  -1  215.15   25.23
  -6   3  -1  164.28   21.19
  -6   3  -1  171.49   22.72
  -6  -3  -1  216.15   26.50
  -6  -3  -2  151.04   22.17
  -6   3  -2  164.50   22.91
  -6   3  -2  149.10   22.13
  -6  -3  -2  145.11   22.50
  -6  -3  -3 2384.70  106.51
  -6   3  -3 2416.91  106.62
  -6  -3  -3 2289.19  101.78
  -6   3  -3 2457.56  104.35
  -6  -3  -4   19.12    7.85
  -6   3  -4   20.85    8.10
  -6  -3  -4   16.98    9.18
  -6   3  -4   30.78   11.00
  -6  -3  -5   56.85   15.13
  -6   3  -5   56.84   15.31
  -6  -3  -5   60.28   16.61
  -6   3  -5   85.55   18.65
  -6  -3  -6   20.49    9.51
  -6   3  -6   12.33    4.36
  -6  -3  -6   26.53   10.87
  -6   3  -6   18.96    8.28
  -6  -3  -7    5.09    7.07
  -6   3  -7    7.74    7.76
  -6  -3  -7    9.69    8.62
  -6   3  -7    5.61    5.94
  -6  -3  -8   15.31    9.51
  -6   3  -8   14.06   10.65
   6   3   8    7.32    3.54
   6  -3   8   11.80    8.14
  -6   3  -9   23.61   13.22
  -6  -3  -9   14.08    5.96
   6  -3   9    8.84    7.69
   6   3   9   11.02    6.88
  -6   3  -9   30.06   13.12
  -6   3  -9   25.66    9.97
  -6  -3 -10    3.55    8.30
  -6   3 -10    8.86    7.81
   6  -3  10    5.59   10.60
   6   3  10   15.42    5.62
  -6   3 -10   -1.91    8.23
   6  -3  11  320.95   45.60
   6   3  11  373.36   46.19
  -6   3 -11  282.11   43.11
   6  -3  12   22.19   13.76
   6   3  12    5.50    5.44
  -6   3 -12   10.83   11.14
  -6   3 -13  -11.40    6.82
  -6  -3 -13    9.44   10.21
   6  -3  13   18.04   13.80
   6   3  13    1.76    8.91
  -6   3 -13   28.00   14.36
   6  -3  14    3.79    9.49
   6   3  14    9.63    3.81
  -6   3 -14   -1.95   10.95
   6  -3  15    3.35    7.14
   6   3  15    5.50    7.36
  -6   3 -15   -8.44    7.88
   6  -3  16   -2.72    6.78
   6   3  16   11.23    5.77
  -6   3 -16   13.94   10.12
   6  -3  17    5.26    7.36
   6   3  17    4.42    2.93
  -6   3 -17   14.36    7.32
   6  -3  18    3.93    3.57
   6   3  18    1.36    2.36
  -6   3 -18   -0.84    5.05
   6   3  19   31.63    6.92
   6  -3  19   27.13    7.35
  -6   3 -19   27.60    7.43
   6   3  20    3.71    2.87
   6  -3  20    1.94    2.26
   6   4 -20    5.79    2.07
   6   4 -20    1.82    2.62
   6   4 -19    7.05    4.25
   6  -4 -19    8.93    3.57
   6   4 -19    8.79    3.54
   6   4 -19   13.28    5.47
   6  -4 -18   64.98   12.19
   6   4 -18   49.47    9.85
   6   4 -17   10.75    5.18
   6  -4 -17   15.12    6.93
   6   4 -16    8.08    7.06
   6  -4 -16    2.16    5.26
   6  -4 -15   38.65   12.81
   6   4 -15   14.50    9.02
   6  -4 -14    6.03    5.95
   6   4 -14    9.95    9.20
   6   4 -13   30.91   14.07
   6  -4 -13   36.19   14.39
   6  -4 -12   34.23   13.21
   6   4 -12   39.55   13.56
  -6  -4  12   37.58   14.23
  -6   4  12   14.05    6.75
   6  -4 -11  133.26   28.11
   6   4 -11  150.35   28.57
   6   4 -11  157.87   24.66
  -6   4  11  132.77   21.41
  -6  -4  11  151.17   28.38
   6  -4 -10  416.48   47.73
   6   4 -10  428.86   47.80
   6   4 -10  400.82   41.37
  -6  -4  10  429.86   45.80
  -6   4  10  402.64   38.24
   6  -4  -9  184.92   31.34
   6   4  -9  195.09   30.80
   6   4  -9  184.78   28.09
  -6  -4   9  161.99   28.11
  -6   4   9  165.30   23.57
   6   4  -9  171.01   28.04
   6  -4  -9  157.95   26.45
   6  -4  -8   56.01   16.43
   6   4  -8   69.37   18.91
   6   4  -8   43.25   14.91
  -6  -4   8   50.57   13.60
  -6   4   8   40.85   11.34
   6   4  -8   25.67   10.63
   6  -4  -8   34.92   12.19
  -6  -4   7  410.64   39.99
  -6   4   7  411.50   37.00
   6  -4  -7  388.06   39.30
   6   4  -7  373.79   37.90
   6  -4  -7  382.17   36.80
   6   4  -7  345.96   35.60
  -6  -4   6   99.84   19.15
  -6   4   6   87.48   16.37
   6  -4  -6  102.40   19.45
   6   4  -6  106.90   19.76
   6  -4  -6   95.87   17.78
   6   4  -6   93.07   17.44
  -6  -4   5  198.25   27.27
  -6   4   5  182.63   24.70
   6  -4  -5  188.29   25.87
   6   4  -5  226.01   27.71
   6  -4  -5  176.28   24.07
   6   4  -5  166.08   24.33
  -6  -4   4  494.08   41.17
  -6   4   4  450.12   38.62
   6  -4  -4  457.32   39.90
   6   4  -4  522.01   42.50
  -6  -4   3 1370.09   71.38
  -6   4   3 1361.75   69.61
   6  -4  -3 1428.79   74.12
   6   4  -3 1431.01   73.40
  -6   4   2 1330.00   66.69
  -6  -4   2 1387.35   70.25
   6  -4  -2 1477.78   75.18
   6   4  -2 1384.51   71.43
  -6   4   1  656.25   43.42
  -6  -4   1  648.53   45.44
  -6   4   1  660.92   39.22
   6  -4  -1  799.33   54.60
   6   4  -1  722.36   49.11
  -6  -4   0  844.44   53.44
  -6  -4   0  841.39   51.45
  -6   4   0  763.29   47.92
  -6   4   0  783.06   50.06
  -6  -4  -1  714.65   48.11
  -6   4  -1  712.61   46.75
  -6   4  -1  727.99   48.95
  -6  -4  -1  758.57   51.42
  -6  -4  -2 1518.13   79.06
  -6  -4  -2 1445.13   75.01
  -6   4  -2 1557.03   75.55
  -6   4  -2 1553.70   77.58
  -6  -4  -3 1595.28   82.42
  -6   4  -3 1614.27   82.90
  -6   4  -3 1436.85   76.17
  -6  -4  -3 1557.71   78.98
  -6  -4  -4  535.29   45.99
  -6   4  -4  556.01   46.33
  -6  -4  -4  563.77   45.43
  -6   4  -4  533.09   44.33
  -6  -4  -5  189.63   27.33
  -6   4  -5  196.84   28.71
  -6  -4  -5  184.35   25.65
  -6   4  -5  179.62   25.47
  -6  -4  -6  106.76   19.24
  -6   4  -6  100.09   19.02
  -6   4  -6  142.16   24.49
  -6  -4  -6  109.23   20.77
  -6  -4  -7  412.33   42.84
  -6   4  -7  386.12   41.13
  -6  -4  -7  383.00   39.14
  -6   4  -7  380.24   39.40
  -6  -4  -8   47.15   16.00
  -6   4  -8   49.15   14.91
   6   4   8   28.29   10.71
   6  -4   8   51.69   16.40
  -6   4  -8   48.96   16.78
  -6   4  -8   29.67   10.64
  -6   4  -8   24.73   11.23
  -6  -4  -9  171.57   29.17
  -6   4  -9  186.45   29.74
   6   4   9  196.06   29.75
   6  -4   9  178.33   31.06
  -6   4  -9  136.61   26.99
  -6   4  -9  166.35   30.99
   6  -4  10  348.35   44.20
   6   4  10  388.16   44.01
  -6  -4 -10  351.23   46.04
  -6   4 -10  407.59   48.32
  -6   4 -10  337.96   44.41
  -6   4 -10  309.66   43.16
   6  -4  11  104.71   22.91
   6   4  11  164.46   27.93
  -6   4 -11   96.11   25.09
  -6   4 -11  141.80   28.32
  -6   4 -12   13.59    6.58
  -6  -4 -12   14.23   12.33
   6  -4  12   32.61   14.97
   6   4  12   39.92   13.87
  -6   4 -12   21.55   12.44
  -6   4 -12   13.55   12.54
   6  -4  13   14.33    9.25
   6   4  13   16.98    7.66
  -6   4 -13   23.12    8.25
  -6   4 -13   15.89    7.72
   6  -4  14   10.14    7.83
   6   4  14    5.66    5.46
  -6   4 -14   21.54   11.85
   6  -4  15   48.24   15.62
   6   4  15   41.55   13.41
  -6   4 -15   51.00   17.29
   6  -4  16   11.23    7.39
   6   4  16    8.01    6.51
  -6   4 -16    5.32    8.33
   6   4  17   11.82    6.70
   6  -4  17    6.73    4.89
  -6   4 -17   17.03    7.92
   6   4  18   47.08    9.33
   6  -4  18   59.64   11.27
   6   4  19   11.25    4.52
   6  -4  19   11.04    4.83
  -6   4 -19    7.41    3.55
   6   4  20    2.58    1.45
   6  -4  20    1.68    1.59
  -6   4 -20    1.64    1.92
   6   5 -20    0.40    2.19
   6   5 -20    4.56    2.87
   6  -5 -19   13.15    4.08
   6   5 -19   14.04    3.53
   6   5 -19   10.59    3.51
   6   5 -19   24.10    6.34
   6  -5 -18   29.65    7.51
   6   5 -18   13.33    5.45
   6  -5 -18   24.82    5.98
   6   5 -18   18.08    5.19
   6  -5 -17   49.50   11.04
   6   5 -17   45.04    9.99
   6  -5 -16   27.38    9.69
   6   5 -16   16.39    6.91
   6  -5 -15    9.38    6.96
   6   5 -15   29.71    9.59
   6  -5 -14   40.14   13.60
   6   5 -14   13.05    3.81
   6  -5 -13   17.60   10.40
   6   5 -13   12.13    9.24
   6  -5 -12   79.11   21.74
   6   5 -12   86.96   20.51
   6   5 -12  111.98   21.05
  -6   5  12   72.93   14.77
  -6  -5  12   90.36   19.73
   6  -5 -11  137.17   28.12
   6   5 -11  171.50   29.48
   6   5 -11  144.92   24.48
  -6  -5  11  139.30   25.44
  -6   5  11  143.40   21.11
   6  -5 -10  195.35   33.53
   6   5 -10  188.94   31.62
   6   5 -10  171.73   27.55
   6   5 -10  156.53   22.55
  -6  -5  10  161.83   25.62
  -6   5  10  163.01   22.32
   6  -5  -9  100.98   23.97
   6   5  -9  129.60   24.98
   6   5  -9   95.12   19.56
   6   5  -9   94.68   17.64
  -6  -5   9   88.67   18.88
  -6   5   9  104.70   17.30
   6  -5  -8  206.21   26.16
   6   5  -8  203.56   26.24
   6  -5  -8  229.33   32.83
   6   5  -8  190.07   29.75
   6   5  -8  186.00   28.44
   6   5  -8  165.70   23.39
  -6  -5   8  190.11   26.88
  -6   5   8  223.14   25.72
   6  -5  -8  201.04   29.70
   6   5  -8  196.27   28.47
   6  -5  -7   80.76   16.02
   6   5  -7   69.58   15.25
   6   5  -7  107.59   21.61
   6   5  -7   76.07   14.68
  -6  -5   7   90.58   18.16
  -6   5   7   81.82   15.13
   6  -5  -7  100.75   19.56
   6   5  -7   68.26   16.26
  -6  -5   6  603.64   46.34
  -6   5   6  554.31   42.17
   6  -5  -6  546.98   44.52
   6   5  -6  586.44   45.44
   6  -5  -6  507.08   41.87
   6   5  -6  534.19   42.64
  -6  -5   5  435.24   38.33
  -6   5   5  402.22   35.81
   6  -5  -5  389.20   36.57
   6   5  -5  380.30   36.02
   6  -5  -5  402.48   36.43
   6   5  -5  399.20   36.20
  -6  -5   4  365.37   34.58
  -6   5   4  339.02   32.40
   6  -5  -4  365.72   35.40
   6   5  -4  333.91   33.65
   6  -5  -4  340.77   33.12
   6   5  -4  370.51   33.98
  -6   5   3  811.63   50.28
  -6  -5   3  837.90   52.00
   6  -5  -3  801.88   52.10
   6   5  -3  823.11   52.22
  -6   5   2 1325.14   65.49
  -6  -5   2 1287.32   67.27
  -6   5   2 1208.60   59.27
   6   5  -2 1370.64   70.19
  -6  -5   1   14.97    6.78
  -6   5   1    8.78    3.71
  -6   5   1   15.05    8.09
  -6   5   1   14.46    6.15
  -6   5   0  381.54   33.86
  -6  -5   0  365.11   32.76
  -6  -5   0  383.52   35.24
  -6   5   0  382.83   32.92
  -6  -5  -1   22.80    7.31
  -6   5  -1   14.23    5.96
  -6  -5  -1   12.87    5.79
  -6   5  -1   20.48    7.77
  -6   5  -2 1485.08   75.46
  -6  -5  -2 1529.11   75.67
  -6   5  -2 1523.61   74.03
  -6  -5  -2 1514.54   77.55
  -6  -5  -3  805.21   55.72
  -6   5  -3  804.94   54.79
  -6  -5  -3  844.10   54.54
  -6   5  -3  799.15   52.02
  -6   5  -4  337.84   35.29
  -6  -5  -4  367.44   35.00
  -6   5  -4  362.69   34.46
  -6  -5  -4  394.73   37.83
  -6  -5  -5  432.42   40.29
  -6   5  -5  427.40   39.59
  -6  -5  -5  386.33   35.98
  -6   5  -5  432.06   37.90
  -6  -5  -6  543.42   46.73
  -6   5  -6  609.06   49.26
  -6  -5  -6  546.32   44.34
  -6   5  -6  555.58   45.14
  -6   5  -6  556.88   54.69
  -6  -5  -7   62.81   16.10
  -6   5  -7   88.36   18.09
  -6   5  -7   71.59   19.11
  -6   5  -7   79.96   18.70
  -6   5  -7   61.65   16.59
  -6  -5  -8  154.26   25.96
  -6   5  -8  248.17   32.40
   6   5   8  174.17   26.36
   6  -5   8  169.41   27.56
  -6   5  -8  210.43   33.49
  -6   5  -8  143.38   26.43
  -6   5  -8  164.92   29.33
  -6   5  -9   93.04   21.96
  -6  -5  -9  101.06   23.01
   6   5   9  102.38   20.53
   6  -5   9   81.66   19.91
  -6   5  -9   80.97   20.70
  -6   5  -9   75.52   19.37
   6   5  10  175.06   27.35
   6  -5  10  171.13   28.54
  -6   5 -10  193.07   33.30
  -6   5 -10  158.11   28.67
   6   5  11  166.86   26.54
   6  -5  11  118.63   24.23
  -6   5 -11  116.37   27.47
  -6   5 -11  140.73   27.93
  -6   5 -12   61.26   20.27
  -6  -5 -12   50.64   16.53
   6  -5  12   99.52   22.58
   6   5  12  101.15   19.74
  -6   5 -12   91.11   23.63
  -6   5 -12  104.86   24.31
   6  -5  13   18.60    7.24
   6   5  13   14.15    6.86
  -6   5 -13   -3.64    7.09
  -6   5 -13   20.61   13.60
   6  -5  14   29.08   13.02
   6   5  14   36.68   11.12
  -6   5 -14   74.12   20.35
  -6   5 -14   54.03   16.03
   6   5  15   13.35    7.25
   6  -5  15   20.66   11.02
  -6   5 -15   24.34   11.64
  -6   5 -15   22.50    7.79
   6   5  16   19.46    8.55
   6  -5  16   26.01    9.55
  -6   5 -16   26.96    9.99
  -6   5 -16   36.56   10.83
   6   5  17   36.64    9.42
   6  -5  17   45.93   11.26
  -6   5 -17   68.76   14.72
   6   5  18   13.71    5.54
   6  -5  18   13.40    4.97
  -6   5 -18   22.10    7.51
   6   5  19    8.61    3.73
   6  -5  19    2.54    2.52
  -6   5 -19    8.26    4.24
   6   5  20    2.85    1.53
   6  -5  20    6.33    2.61
  -6   5 -20    1.97    1.47
   6   6 -19    5.53    3.34
   6  -6 -18   16.52    4.25
   6   6 -18    9.90    3.57
   6   6 -18   12.94    5.51
   6  -6 -17   16.01    5.32
   6   6 -17   17.98    5.29
   6  -6 -17   26.88    8.42
   6   6 -17    6.19    4.77
   6   6 -17   28.19    7.68
   6  -6 -16   12.55    6.97
   6   6 -16   12.42    4.97
   6  -6 -16   15.77    5.40
   6   6 -16   19.43    5.56
   6   6 -15    7.58    4.87
   6  -6 -15   -4.05    3.77
   6  -6 -15   -2.18    4.13
   6   6 -15    6.57    3.47
   6  -6 -14    1.20    6.21
   6   6 -14   22.68    7.52
   6   6 -14    9.54    6.34
   6  -6 -13   22.19    9.71
   6   6 -13   16.04    8.76
   6   6 -13   21.85    7.81
   6   6 -13   24.37   10.37
   6  -6 -12  136.82   25.70
   6   6 -12  116.58   23.48
   6   6 -12  172.38   27.01
   6   6 -12  126.05   19.17
   6  -6 -11   48.59   17.12
   6   6 -11   30.60   12.40
   6  -6 -11   37.08   11.34
   6   6 -11   61.39   13.32
   6   6 -11   27.82   12.33
   6   6 -11   47.90   11.51
  -6  -6  11   26.19    9.34
  -6   6  11   38.14   10.46
   6  -6 -10   72.96   19.17
   6   6 -10   67.88   18.06
   6  -6 -10   92.82   17.24
   6   6 -10   83.47   16.01
   6   6 -10   69.46   17.56
   6   6 -10   63.91   14.13
  -6  -6  10   56.66   13.25
  -6   6  10   63.26   12.77
   6   6  -9   26.33    9.00
   6  -6  -9   34.55   13.11
   6   6  -9   16.78    7.05
   6  -6  -9   16.79    7.22
   6   6  -9   18.99   10.18
   6   6  -9   26.49    8.79
  -6  -6   9   13.17    6.36
  -6   6   9   18.25    7.94
   6  -6  -8   21.38    7.80
   6   6  -8   35.22   10.83
   6  -6  -8   29.14   11.24
   6   6  -8   24.83   11.06
   6   6  -8   25.55    9.64
   6   6  -8   13.74    6.47
   6   6  -8    9.70    6.46
  -6  -6   8   23.99   10.38
  -6   6   8   18.67    7.55
   6  -6  -7   45.57   12.49
   6   6  -7   38.21   10.63
   6   6  -7   52.06   13.48
   6   6  -7   33.11   12.42
   6   6  -7   33.92   10.98
   6   6  -7   46.84   11.70
  -6  -6   7   44.34   12.67
  -6   6   7   42.54   11.65
   6  -6  -7   39.12   12.49
   6   6  -7   30.97   10.82
   6  -6  -6   80.82   14.73
   6   6  -6   82.03   14.84
   6   6  -6   92.11   20.96
   6   6  -6   70.73   15.55
   6   6  -6   78.80   15.30
  -6  -6   6   83.26   16.95
  -6   6   6  100.75   17.05
   6  -6  -6   91.15   18.27
   6   6  -6   94.66   18.07
   6  -6  -5  130.25   19.85
   6   6  -5  148.90   20.99
   6   6  -5  128.47   19.10
   6   6  -5  139.34   25.46
  -6  -6   5  151.70   22.31
  -6   6   5  155.40   21.51
   6  -6  -5  117.82   20.20
   6   6  -5  143.72   21.23
  -6   6   4 1536.21   71.82
  -6  -6   4 1558.86   75.71
   6  -6  -4 1510.13   74.29
   6   6  -4 1545.66   74.12
  -6   6   4 1409.71   67.47
   6  -6  -4 1539.05   74.48
   6   6  -4 1452.54   72.09
   6  -6  -3  112.73   18.90
   6   6  -3   83.48   14.75
  -6  -6   3  101.41   18.32
  -6   6   3   97.09   16.75
  -6   6   3   83.14   14.27
  -6  -6   2   62.96   12.78
  -6   6   2   64.86   13.27
   6  -6  -2   89.40   17.99
  -6   6   2   47.58   10.84
  -6  -6   1  299.73   29.11
  -6   6   1  283.29   27.69
  -6   6   1  276.91   26.33
  -6  -6   1  261.50   26.04
  -6   6   1  233.22   23.19
  -6  -6   0   38.41   10.31
  -6   6   0   51.19   11.77
  -6  -6   0   42.37   11.01
  -6   6   0   28.46    9.10
  -6   6  -1  305.91   30.57
  -6  -6  -1  307.55   30.53
  -6   6  -1  298.60   29.72
  -6  -6  -1  290.81   31.16
  -6  -6  -2   62.86   13.89
  -6   6  -2   55.58   12.58
  -6  -6  -2   72.10   15.22
  -6   6  -2   61.93   14.55
  -6  -6  -3   99.39   16.51
  -6  -6  -3  127.33   20.45
  -6   6  -3  135.63   19.18
  -6   6  -3   99.75   16.99
  -6  -6  -4 1400.52   73.98
  -6   6  -4 1550.60   75.71
  -6  -6  -4 1417.93   71.64
  -6   6  -4 1463.53   71.15
  -6  -6  -5  142.19   21.99
  -6   6  -5  125.06   20.47
  -6  -6  -5  163.85   22.08
  -6   6  -5  128.44   20.06
  -6   6  -5  125.54   27.20
  -6   6  -5  107.01   22.26
  -6   6  -5  122.77   22.89
  -6  -6  -6   62.72   14.72
  -6   6  -6   87.62   16.81
  -6  -6  -6  133.80   22.30
  -6   6  -6   96.44   17.85
  -6   6  -6   84.15   21.36
  -6   6  -6   82.36   20.30
  -6   6  -6   53.38   14.53
  -6  -6  -7   46.17   12.43
  -6   6  -7   50.87   14.89
   6   6   7   27.81    8.67
   6  -6   7   45.14   12.10
  -6   6  -7   32.52   14.53
  -6   6  -7   21.64    9.24
  -6   6  -7   50.53   16.93
  -6  -6  -8   15.23    9.34
  -6   6  -8   29.13   11.48
   6   6   8   30.52   10.78
   6  -6   8   23.15    9.40
  -6   6  -8   17.77    7.58
  -6   6  -8   19.36   10.02
  -6   6  -8   11.42    8.40
  -6  -6  -9   26.92   11.87
  -6   6  -9   29.69   12.64
   6   6   9   27.16    9.78
   6  -6   9   38.16   13.44
  -6   6  -9   15.66   10.05
  -6   6  -9   20.20    6.86
  -6   6  -9   25.87   11.05
   6   6  10   79.41   16.36
   6  -6  10   64.51   15.71
  -6   6 -10   72.01   21.21
  -6   6 -10   73.57   19.74
  -6   6 -11   43.29   14.78
  -6  -6 -11   34.28   14.10
   6   6  11   49.09   12.95
   6  -6  11   22.88    9.98
  -6   6 -11   45.72   15.80
  -6   6 -11   33.40   12.02
   6   6  12  120.01   19.88
   6  -6  12  138.93   24.32
  -6   6 -12  154.84   28.89
  -6   6 -12  131.79   25.58
   6   6  13   19.20    9.10
   6  -6  13   26.19   10.83
  -6   6 -13   30.63   13.76
  -6   6 -13   18.45    7.89
   6   6  14   15.78    7.51
   6  -6  14   29.19   12.41
  -6   6 -14   28.86   11.73
  -6   6 -14   17.50   11.12
   6   6  15   -0.81    2.65
   6  -6  15    4.28    3.88
  -6   6 -15   -6.44    5.73
  -6   6 -15   -2.39    6.56
   6   6  16   13.35    5.15
   6  -6  16   16.86    7.80
  -6   6 -16   11.09    7.39
  -6   6 -16   13.07    6.15
   6   6  17   19.46    5.82
   6  -6  17   10.39    4.97
  -6   6 -17   14.72    6.29
  -6   6 -17   12.45    5.22
   6   6  18   20.63    5.24
   6  -6  18   17.37    5.02
  -6   6 -18   18.44    7.37
   6   6  19   -0.28    1.89
   6  -6  19    6.05    3.25
  -6   6 -19    4.45    3.67
   6   7 -19    3.85    2.82
   6   7 -19    6.85    2.74
   6   7 -18    0.53    2.32
   6   7 -18    5.63    2.54
   6   7 -17   14.77    4.67
   6   7 -17    8.53    2.92
   6   7 -17   17.92    6.04
   6   7 -17   17.90    5.91
   6  -7 -16   -4.55    4.39
   6   7 -16    2.47    2.20
   6   7 -16    0.40    2.09
   6   7 -16    1.59    3.70
   6   7 -15    0.76    3.80
   6  -7 -15    0.60    3.03
   6   7 -15    7.94    4.11
   6  -7 -15   12.55    6.21
   6   7 -15    3.55    2.54
   6   7 -15    2.76    5.48
   6  -7 -14   -0.71    2.85
   6   7 -14    2.36    2.17
   6  -7 -14    1.85    2.56
   6   7 -14    0.92    4.72
   6  -7 -13    8.95    5.05
   6   7 -13    2.03    2.98
   6  -7 -13    1.07    6.12
   6   7 -13    1.09    4.34
   6   7 -13   -1.63    5.70
   6   7 -13    6.90    5.70
   6  -7 -12    0.89    3.46
   6   7 -12    1.49    4.26
   6   7 -12    7.68    5.31
   6   7 -12    0.95    3.58
   6   7 -12    4.04    5.90
   6  -7 -11   72.85   14.05
   6   7 -11   81.37   14.03
   6   7 -11   69.93   17.76
   6   7 -11   76.51   18.75
   6   7 -11   79.41   15.77
   6   7 -10    4.78    5.99
   6  -7 -10    0.95    4.26
   6   7 -10    0.81    3.76
   6   7 -10   11.20    8.07
   6   7 -10   -2.24    5.22
  -6   7  10    1.54    3.20
   6   7  -9   60.91   15.22
   6  -7  -9   84.57   15.57
   6   7  -9   69.09   12.95
  -6   7   9   66.42   12.70
   6   7  -9   59.11   16.03
   6   7  -9   42.67   11.60
  -6   7   8    1.87    4.52
   6   7  -8   -3.05    8.63
   6  -7  -8   -4.70    5.87
   6   7  -8   -0.80    3.84
  -6   7   8    2.51    4.10
   6   7  -8    8.24    9.04
   6   7  -8    6.98    6.59
   6   7  -8   -0.96    3.39
  -6   7   8   -1.49    3.96
  -6   7   7   73.75   13.86
   6  -7  -7   81.06   15.10
   6   7  -7   96.06   19.72
   6   7  -7   80.63   14.00
   6   7  -7   73.53   20.59
   6   7  -7   76.59   16.89
   6   7  -7   70.31   14.41
  -6  -7   7   72.99   14.88
  -6   7   7   85.11   14.61
   6   7  -7   82.26   17.29
  -6   7   6   32.36    9.47
   6   7  -6   41.46   10.66
   6   7  -6   45.77   15.39
   6   7  -6   42.89   12.37
   6   7  -6   51.81   12.42
  -6  -7   6   46.75   12.60
  -6   7   6   56.15   12.59
   6   7  -6   48.25   13.42
  -6   7   5  141.61   18.63
   6   7  -5  160.39   20.10
   6   7  -5  136.02   24.62
   6   7  -5   99.83   19.00
   6   7  -5  115.94   19.26
  -6   7   5  148.04   19.28
  -6  -7   5  176.27   22.99
   6   7  -5  138.13   20.16
  -6   7   4    3.33    3.42
   6   7  -4    8.49    7.52
   6   7  -4    2.33    4.89
   6   7  -4    3.20    3.31
  -6  -7   4    1.80    3.87
  -6   7   4    0.81    3.09
   6   7  -4    2.46    4.16
   6  -7  -4   -1.88    4.06
   6   7  -4    0.91    4.46
  -6   7   3  319.85   28.67
   6   7  -3  356.13   35.94
   6   7  -3  275.28   31.82
  -6   7   3  374.45   41.35
  -6   7   3  355.99   29.19
  -6  -7   3  371.61   30.94
   6  -7  -3  328.11   30.25
   6   7  -3  362.83   31.07
  -6  -7   2   49.69   12.12
  -6   7   2   40.56   10.15
  -6   7   2   38.73    8.81
  -6   7   2   32.87    8.99
  -6  -7   1   48.86   10.79
  -6   7   1   42.71   10.15
  -6   7   1   33.60    9.52
  -6   7   1   31.08    8.50
  -6  -7   0   56.34   12.58
  -6   7   0   67.53   12.98
  -6   7   0   64.06   13.08
  -6  -7  -1   43.72   10.42
  -6   7  -1   44.20   10.54
  -6   7  -1   34.92    9.26
  -6  -7  -2   50.31   11.91
  -6   7  -2   37.39    9.87
  -6   7  -2   30.20    9.02
  -6   7  -2   19.35   10.48
  -6  -7  -3  309.09   28.97
  -6   7  -3  386.64   32.30
  -6   7  -3  362.26   29.78
  -6   7  -3  285.90   39.47
  -6   7  -3  309.51   36.71
  -6  -7  -4    4.35    5.06
  -6   7  -4   -0.83    5.13
  -6   7  -4    7.28    6.30
  -6   7  -4    4.71    9.05
  -6   7  -4   -6.98    7.00
  -6   7  -4    4.18    6.43
  -6   7  -5  132.19   19.32
  -6  -7  -5  138.54   19.43
  -6   7  -5  138.09   19.73
   6   7   5  126.13   21.10
  -6   7  -5  129.68   24.35
  -6   7  -5  151.56   27.14
  -6   7  -5  106.63   20.93
  -6  -7  -6   51.88   13.31
  -6   7  -6   58.68   13.64
  -6   7  -6   31.52    9.97
  -6   7  -6   36.34   13.45
  -6   7  -6   32.43   12.04
  -6   7  -7   83.21   16.92
  -6   7  -7   75.83   18.43
  -6   7  -7   65.49   20.15
  -6   7  -7   65.85   17.34
  -6   7  -8   -2.64    6.04
   6   7   8    0.87    2.30
  -6   7  -8    1.48    3.89
  -6   7  -8    8.70    7.41
  -6   7  -8   -1.52    5.72
   6   7   9   70.70   13.55
  -6   7  -9   97.78   21.47
  -6   7  -9   44.64   13.75
  -6   7  -9   60.70   17.70
  -6   7 -10    1.72    5.98
   6   7  10    2.53    3.56
  -6   7 -10    4.97   10.75
  -6   7 -10    7.49    7.68
   6   7  11   76.88   13.84
   6  -7  11   60.86   14.52
  -6   7 -11   78.84   19.35
  -6   7 -11   90.86   19.97
   6   7  12    3.21    2.03
   6  -7  12    2.28    4.75
  -6   7 -12   -4.89   10.48
  -6   7 -12    4.37    6.02
   6   7  13    5.32    3.67
   6  -7  13    7.63    6.39
  -6   7 -13   -1.39    3.75
  -6   7 -13   -2.99    6.92
   6   7  14    6.92    4.98
   6  -7  14    6.96    5.30
  -6   7 -14    1.29    6.43
  -6   7 -14    5.20    4.34
   6   7  15    1.80    2.32
   6  -7  15    5.14    2.67
  -6   7 -15    1.16    4.86
  -6   7 -15    1.08    3.24
   6   7  16    2.46    1.81
   6  -7  16    3.48    3.13
  -6   7 -16    1.99    4.05
  -6   7 -16   -2.55    3.27
   6   7  17   11.48    3.52
   6  -7  17   11.22    4.41
  -6   7 -17   12.52    6.94
  -6   7 -17   19.10    6.36
   6   7  18   -0.84    1.64
  -6   7 -18   -1.34    3.19
  -6   7 -18    1.34    2.11
  -6   7 -19    3.02    2.46
   6   8 -18   -2.48    2.80
   6   8 -18   -0.86    1.31
   6   8 -17    2.16    2.07
   6   8 -17   -0.81    1.78
   6   8 -16    3.32    2.46
   6   8 -16    0.53    1.97
   6   8 -15    3.39    2.62
   6   8 -15    7.29    5.31
   6   8 -15    5.83    3.74
   6   8 -15    4.68    2.77
   6   8 -14   37.41    9.49
   6   8 -14   41.40   10.37
   6   8 -14   39.69   10.16
   6   8 -13    4.14    2.40
   6   8 -13    5.52    2.88
   6   8 -12    7.77    6.35
   6   8 -12   21.99    8.99
   6   8 -12   27.68   10.29
   6   8 -11    5.12    5.91
   6   8 -11   17.92   10.18
  -6   8  10   47.05   11.28
   6   8 -10   38.75   13.32
   6   8 -10   30.91   10.45
  -6   8   9    6.24    5.60
   6   8  -9    5.03    6.61
   6   8  -9   -3.45    7.68
   6   8  -9   -0.91    4.46
  -6   8   8   38.17    9.51
   6   8  -8   13.47    8.78
   6   8  -8   30.59   10.18
   6   8  -8   40.37   10.36
  -6   8   8   39.92   14.31
  -6   8   7  112.01   16.77
   6   8  -7   87.69   15.98
   6   8  -7  134.21   26.07
   6   8  -7   85.37   17.47
  -6   8   6   45.68   10.14
   6   8  -6   27.49    6.94
   6   8  -6   70.06   16.21
   6   8  -6   62.56   14.19
  -6   8   6   52.86   16.90
  -6   8   5   55.43   11.94
   6   8  -5   68.21   16.72
   6   8  -5   66.63   16.64
   6   8  -5   45.42   11.88
  -6   8   5   54.45   17.10
  -6   8   4  110.20   16.72
   6   8  -4  102.62   19.01
   6   8  -4  117.93   20.77
  -6   8   4  115.25   24.01
  -6   8   3   38.26    9.87
   6   8  -3   22.55    9.03
   6   8  -3   15.91    8.15
  -6   8   3   43.41   13.57
  -6   8   3   53.97   17.85
  -6   8   2   50.55   11.54
   6   8  -2   54.10   13.92
   6   8  -2   47.96   14.17
  -6   8   2   33.37   14.72
  -6   8   2   54.81   16.84
  -6   8   1   72.89   14.08
   6   8  -1   89.50   17.76
   6   8  -1   81.89   17.29
  -6   8   1   69.37   19.29
  -6   8   1   94.18   19.60
  -6   8   0  270.84   35.78
   6   8   0  248.09   32.00
  -6   8  -1   58.93   11.39
   6   8   1   74.07   17.59
  -6   8  -1   94.91   20.24
  -6   8  -1   80.90   20.17
  -6   8  -2   45.56    9.74
   6   8   2   72.78   16.82
  -6   8  -2   68.09   18.66
  -6   8  -2   40.02   15.46
   6   8   3   26.86   10.90
  -6   8  -3   18.65   11.16
  -6   8  -3   34.71   16.16
   6   8   4   99.26   19.38
  -6   8  -4  111.37   21.13
  -6   8  -4  131.28   26.27
   6   8   5   72.76   16.39
  -6   8  -5   47.93   16.10
  -6   8  -5   35.25   12.12
   6   8   6   67.48   15.24
  -6   8  -6   58.71   16.46
  -6   8  -6   54.67   16.96
   6   8   7   95.60   18.36
  -6   8  -7   87.45   19.75
  -6   8  -7  103.69   21.79
  -6   8  -7   79.10   20.96
  -6   8  -8   22.30    8.34
   6   8   8   29.38   10.48
  -6   8  -8   54.37   15.73
  -6   8  -8   54.84   14.31
  -6   8  -9    1.44    5.76
   6   8   9    2.51    4.23
  -6   8  -9   -1.45    7.62
  -6   8  -9    8.87    8.73
  -6   8 -10   55.86   14.52
  -6   8 -10   30.16   11.02
  -6   8 -10   47.97   15.82
  -6   8 -11   32.14   12.80
  -6   8 -11    4.45    8.15
  -6   8 -12   12.06    8.29
  -6   8 -12   26.98   11.60
  -6   8 -13   13.83    9.09
  -6   8 -13   10.43    7.86
   6   8  14   34.66    7.05
  -6   8 -14   50.66   13.43
  -6   8 -14   31.80   10.62
  -6   8 -15    3.09    7.27
  -6   8 -15    4.74    5.52
  -6   8 -16    1.78    2.87
  -6   8 -16    3.02    4.33
  -6   8 -17   -0.75    4.04
  -6   8 -17   -3.44    2.18
  -6   8 -18    3.62    2.66
  -6   8 -18    1.80    2.55
   6   9 -18    1.81    1.22
   6   9 -17   -5.37    4.06
   6   9 -16    4.24    3.23
   6   9 -15   -4.18    4.18
   6   9 -15    9.59    4.01
   6   9 -14    0.81    4.30
   6   9 -14   -1.47    3.14
   6   9 -13   36.48    8.85
   6   9 -13   52.28   13.28
   6   9 -13   48.13   10.83
   6   9 -12    2.58    3.37
   6   9 -12    9.92    8.30
   6   9 -12    4.40    3.05
   6   9 -11   88.19   16.66
   6   9 -11   87.30   19.76
   6   9 -11   96.23   16.54
   6   9 -10   18.89   13.00
   6   9 -10    3.22    3.90
   6   9  -9   59.68   17.07
   6   9  -9   43.96   11.56
   6   9  -9   66.07   15.09
  -6   9   8    4.90    2.44
   6   9  -8    5.05    5.19
   6   9  -8   -4.71    6.48
   6   9  -8   -1.83    4.97
  -6   9   8   13.63    7.62
  -6   9   7   70.55   12.88
   6   9  -7   59.70   14.21
   6   9  -7   74.80   19.97
   6   9  -7   74.25   16.73
  -6   9   7   49.02   14.47
  -6   9   6   19.51    7.26
   6   9  -6   23.69    8.57
   6   9  -6    4.86    8.15
   6   9  -6   12.02    5.05
  -6   9   6   25.54   12.73
  -6   9   5   56.66   12.54
   6   9  -5   51.78   12.62
   6   9  -5   58.88   14.17
  -6   9   5   54.33   16.03
  -6   9   4    8.59    6.13
   6   9  -4    2.39    6.91
   6   9  -4    9.83    7.14
  -6   9   4   -7.11   10.55
  -6   9   3   44.43   11.13
   6   9  -3   34.29   12.67
   6   9  -3   36.73   11.94
  -6   9   3   34.98   10.41
   6   9  -3   37.11   12.42
  -6   9   3   32.71   13.27
  -6   9   2    7.93    4.85
   6   9  -2   10.73    8.25
   6   9  -2   10.52    7.55
  -6   9   2   11.42    6.44
   6   9  -2    9.74    4.67
  -6   9   2    5.48    5.57
   6   9  -1  220.26   28.15
   6   9  -1  195.15   27.30
  -6   9   1  200.80   31.65
   6   9  -1  186.34   26.76
  -6   9   1  167.37   30.17
   6   9   0   63.45   14.67
   6   9   0   88.91   17.05
   6   9   0   88.75   18.73
  -6   9   0   49.59   15.31
  -6   9  -1  191.57   29.05
   6   9   1  194.17   27.70
  -6   9  -1  237.64   33.08
  -6   9  -2    6.92    2.59
   6   9   2    1.27    3.17
  -6   9  -2   22.84   13.74
  -6   9  -2   14.72   10.95
  -6   9  -2    1.47    5.56
  -6   9  -3   20.82    6.95
   6   9   3   31.50   10.52
  -6   9  -3   12.30   12.53
  -6   9  -4    0.90    2.62
   6   9   4    2.46    5.84
  -6   9  -4    8.71    9.21
  -6   9  -4  -14.16   14.96
  -6   9  -5   54.86   12.81
   6   9   5   66.10   15.92
  -6   9  -5   61.45   17.07
  -6   9  -5   59.46   15.76
  -6   9  -5   53.43   13.84
  -6   9  -6   17.59    6.96
   6   9   6   19.11    8.51
  -6   9  -6   28.44   12.18
  -6   9  -6   45.00   15.24
  -6   9  -6   23.95   10.02
  -6   9  -7   61.19   13.14
  -6   9  -7   59.41   16.58
   6   9   7   50.66   13.67
  -6   9  -7   63.11   15.19
  -6   9  -8   10.76    6.18
  -6   9  -8   -1.44    6.38
   6   9   8    2.47    4.66
  -6   9  -8    1.36    6.90
  -6   9  -9   55.50   15.41
   6   9   9   42.05   12.27
  -6   9  -9   26.12    9.97
  -6   9 -10   -3.39    7.05
   6   9  10    1.18    4.17
  -6   9 -10   -2.72    6.87
   6   9  11   76.41   15.69
  -6   9 -11   89.97   18.16
  -6   9 -11   68.53   17.32
  -6   9 -12    5.53    5.10
  -6   9 -12    1.23    5.61
  -6   9 -12    1.24    4.20
  -6   9 -13   53.17   14.39
  -6   9 -13   28.22    9.72
  -6   9 -14   -6.16    4.24
  -6   9 -14   -9.79    7.04
  -6   9 -15    0.91    3.95
  -6   9 -15   16.30    6.98
  -6   9 -16   -0.79    3.41
  -6   9 -16   -1.31    3.93
  -6   9 -17    3.28    3.17
  -6   9 -17    0.50    1.83
  -6   9 -18    1.02    2.19
  -6   9 -18   -0.70    1.80
   6  10 -17    8.75    2.89
  -6  10  16   12.23    3.85
   6  10 -16   12.43    3.54
   6  10 -15   16.54    5.42
   6  10 -15   15.64    5.13
   6  10 -14    8.43    5.07
   6  10 -14    9.94    4.96
   6  10 -13   11.85    5.01
   6  10 -13    5.43    4.19
   6  10 -13   14.68    5.94
   6  10 -12    3.16    4.68
   6  10 -12   14.48    7.95
   6  10 -12   14.69    6.13
   6  10 -11   57.68   12.71
   6  10 -11   69.35   16.28
   6  10 -11   70.94   12.78
   6  10 -10   25.57    9.71
   6  10 -10   17.61   10.06
   6  10 -10   30.47    8.68
   6  10  -9   39.34   14.54
   6  10  -9   34.22   11.52
   6  10  -8  326.01   32.96
   6  10  -8  224.62   26.88
   6  10  -8  289.03   36.62
  -6  10   7   88.56   13.84
   6  10  -7   86.14   20.72
   6  10  -7   94.76   18.37
   6  10  -7   86.28   15.63
  -6  10   7   91.69   18.17
  -6  10   6    6.48    5.27
   6  10  -6    4.77    5.87
   6  10  -6   11.53    5.85
  -6  10   6   10.56    9.07
  -6  10   5   48.07   11.42
   6  10  -5   43.85   13.21
   6  10  -5   47.35   11.22
  -6  10   5   52.29   16.01
  -6  10   4   37.04    9.83
   6  10  -4   43.21   15.08
   6  10  -4   38.74   12.36
   6  10  -4   42.34   11.60
  -6  10   4   25.98   10.76
   6  10  -3  181.10   26.10
   6  10  -3  155.10   25.38
   6  10  -3  188.83   26.09
  -6  10   3  175.71   30.81
  -6  10   2   -1.29    5.16
   6  10  -2   -2.71    5.46
   6  10  -2    8.13    5.61
   6  10  -2    1.15    4.61
  -6  10   2    1.82    9.15
   6  10  -1   67.79   15.83
   6  10  -1   77.15   16.91
  -6  10   1   81.76   20.00
  -6  10   1   62.66   16.45
   6  10   0  564.84   46.49
   6  10   0  514.38   44.67
  -6  10   0  571.32   48.41
  -6  10   0  451.34   50.35
   6  10   1   82.51   17.65
  -6  10  -1   73.47   15.26
   6  10   1   72.85   16.73
  -6  10  -1   86.13   17.67
  -6  10  -1   76.06   18.24
  -6  10  -2   10.70    7.42
   6  10   2    5.73    4.73
   6  10   2   -6.25    8.49
  -6  10  -2   10.44    5.03
  -6  10  -2    1.33    4.43
  -6  10  -2    8.51    8.57
  -6  10  -3  143.71   19.09
  -6  10  -3  175.81   26.51
   6  10   3  209.90   28.00
   6  10   3  232.79   28.17
  -6  10  -3  138.91   26.35
  -6  10  -3  202.92   28.40
  -6  10  -4   33.54    9.27
   6  10   4   45.26   12.06
   6  10   4   36.84   11.51
  -6  10  -4   28.46   12.56
  -6  10  -4   44.11   12.86
  -6  10  -5   48.88   11.85
   6  10   5   61.32   14.62
  -6  10  -5   30.76   13.62
  -6  10  -5   43.18   13.39
  -6  10  -6    6.53    4.41
  -6  10  -6   -1.51    4.77
   6  10   6    8.37    6.38
  -6  10  -6    5.44    5.24
  -6  10  -7   82.62   15.17
  -6  10  -7   89.35   20.55
   6  10   7   97.72   18.99
  -6  10  -7  101.05   20.40
  -6  10  -7  111.27   21.03
  -6  10  -8  331.23   37.14
   6  10   8  296.14   32.87
  -6  10  -8  277.02   32.94
  -6  10  -8  279.28   32.23
  -6  10  -9   43.08   11.81
   6  10   9   31.88   10.44
  -6  10  -9   29.40   11.21
  -6  10  -9   35.12   10.89
  -6  10 -10   29.67    9.80
   6  10  10   32.54   10.69
  -6  10 -10   15.84    4.17
   6  10  11   68.79   14.50
  -6  10 -11   82.61   14.76
  -6  10 -11   90.20   17.43
   6  10  12    5.32    5.04
  -6  10 -12   11.60    5.32
  -6  10 -12    3.20    3.95
  -6  10 -13   14.43    4.64
  -6  10 -13    0.96    4.59
  -6  10 -14    7.19    3.81
  -6  10 -14   13.26    5.96
  -6  10 -15   27.50    8.36
  -6  10 -15    9.70    4.90
  -6  10 -16   12.64    5.51
  -6  10 -16   18.44    6.01
  -6  10 -17   14.10    5.22
  -6  10 -17    7.69    3.00
  -6  11  16   16.35    4.00
   6  11 -16   11.40    3.35
  -6  11  15   30.35    6.22
   6  11 -15   24.01    5.07
  -6  11  14   19.28    5.88
   6  11 -14   11.64    5.03
   6  11 -14   12.11    4.16
   6  11 -13    0.76    5.13
   6  11 -13    5.93    3.23
   6  11 -12   72.86   12.46
   6  11 -12  104.07   17.05
   6  11 -12   81.51   11.87
   6  11 -11    5.79    5.23
   6  11 -11    2.26    6.43
   6  11 -11    0.62    3.55
   6  11 -10  137.30   22.72
   6  11 -10  115.03   18.40
   6  11  -9    8.28    5.73
   6  11  -9   -5.68    4.78
   6  11  -8  108.81   19.18
   6  11  -8  113.72   22.70
   6  11  -7  214.96   27.34
   6  11  -7  208.60   23.01
  -6  11   7  230.25   27.38
   6  11  -6  276.80   31.21
   6  11  -6  282.14   27.49
  -6  11   6  250.82   31.27
   6  11  -5    4.48    7.70
   6  11  -5    7.98    4.31
   6  11  -5    0.95    3.03
  -6  11   5    5.76    5.19
   6  11  -4  191.06   25.17
   6  11  -4  162.07   22.01
   6  11  -4  182.50   28.03
  -6  11   4  171.90   28.15
   6  11  -3   15.06    7.83
   6  11  -3   11.60    7.53
  -6  11   3    5.00    5.23
   6  11  -2  369.81   34.97
   6  11  -2  344.96   37.14
  -6  11   2  373.88   35.77
  -6  11   2  312.47   40.36
  -6  11   1   90.91   17.62
   6  11  -1   92.44   18.13
   6  11  -1  106.25   19.53
  -6  11   1   81.05   20.78
   6  11   0  239.94   28.15
   6  11   0  237.49   28.73
  -6  11   0  210.48   25.64
   6  11   0  198.71   26.39
  -6  11   0  244.91   28.89
  -6  11   0  188.83   31.21
   6  11   1  115.08   19.40
  -6  11  -1   49.14   12.27
   6  11   1   95.23   18.21
   6  11   1   87.20   17.68
  -6  11  -1   77.88   17.58
  -6  11  -2  356.72   35.26
   6  11   2  424.89   37.61
  -6  11  -2  377.15   33.02
   6  11   2  414.34   38.58
   6  11   2  441.49   40.62
  -6  11  -2  367.63   38.83
  -6  11  -2  318.84   38.37
  -6  11  -3   10.78    6.52
   6  11   3    1.05    3.66
   6  11   3    6.88    4.93
  -6  11  -3    8.04    5.71
   6  11   3    8.43    6.13
  -6  11  -3   18.90    7.70
  -6  11  -3    5.15    5.23
  -6  11  -4  119.52   17.18
  -6  11  -4  171.98   24.89
   6  11   4  209.57   27.30
   6  11   4  191.16   25.06
  -6  11  -4  175.77   25.89
  -6  11  -4  172.82   27.74
  -6  11  -5    1.72    2.42
  -6  11  -5   25.61   12.03
   6  11   5    8.31    4.72
  -6  11  -5    7.32    6.64
  -6  11  -5   14.91    8.98
  -6  11  -6  296.38   33.66
   6  11   6  283.49   32.01
  -6  11  -6  286.66   33.08
  -6  11  -7  263.37   31.49
   6  11   7  230.03   28.69
  -6  11  -7  203.55   27.66
   6  11   8  128.27   20.49
  -6  11  -8  104.42   20.00
  -6  11  -8  139.73   21.43
  -6  11  -9    4.88    5.28
   6  11   9   -1.10    6.48
  -6  11  -9   -1.21    5.27
  -6  11  -9    7.39    6.05
  -6  11  -9   14.68    7.77
  -6  11 -10  106.93   16.23
  -6  11 -10  149.30   22.17
   6  11  10  151.79   21.54
  -6  11 -10  134.99   18.92
  -6  11 -10  127.46   20.35
  -6  11 -11    2.13    2.56
   6  11  11   -0.93    3.06
  -6  11 -11   -3.12    3.81
  -6  11 -11    7.43    4.33
  -6  11 -11   -1.99    4.60
   6  11  12   82.73   14.24
  -6  11 -12   84.11   12.70
  -6  11 -12   89.55   16.70
  -6  11 -12   81.15   15.25
   6  11  13    8.89    4.07
  -6  11 -13    9.87    4.81
  -6  11 -13    3.20    3.14
  -6  11 -14   13.17    4.38
  -6  11 -15   34.73    7.88
  -6  11 -16   16.76    4.96
  -6  12  15    4.87    2.67
   6  12 -15   -0.80    1.25
  -6  12  14   27.66    6.28
   6  12 -14   12.33    4.23
  -6  12  13    4.66    2.73
   6  12 -13    1.21    2.14
   6  12 -12    5.95    4.01
  -6  12  12    0.63    3.67
   6  12 -12   -5.33    5.07
   6  12 -11   33.52    9.11
  -6  12  11   22.72    8.14
   6  12 -11   33.24    9.36
   6  12 -10    5.80    5.53
   6  12 -10   -2.15    3.71
   6  12  -9   50.87   12.10
   6  12  -9   50.73   14.78
   6  12  -8   41.80   11.53
  -6  12   7   24.66    7.95
   6  12  -7   23.92    9.10
  -6  12   6   93.15   16.65
   6  12  -6   79.28   18.09
   6  12  -6   97.85   17.43
  -6  12   5  116.36   20.17
   6  12  -5   91.02   19.65
   6  12  -5  113.49   17.58
   6  12  -5  107.02   19.05
  -6  12   4   61.05   14.36
   6  12  -4   45.61   14.20
   6  12  -4   59.83   13.24
  -6  12   4   54.77   12.39
  -6  12   3   68.51   15.78
   6  12  -3   61.24   15.21
  -6  12   3   36.37   11.04
   6  12  -3   61.42   13.94
  -6  12   2   99.18   20.59
   6  12  -2   73.52   16.86
  -6  12   2   75.29   14.98
   6  12  -2  120.92   19.45
  -6  12   1   74.04   17.66
   6  12  -1   91.55   18.49
  -6  12   1   73.49   15.31
   6  12  -1   87.96   16.96
   6  12  -1   76.11   15.97
  -6  12   1   97.51   17.08
  -6  12   0   25.02   12.57
  -6  12   0    8.70    5.18
   6  12   0   26.70    9.65
  -6  12   0   24.02    8.42
   6  12   0   23.64    8.87
   6  12   0   19.04    7.59
   6  12   1   80.73   16.99
   6  12   1   90.90   16.42
   6  12   1   82.08   16.82
  -6  12  -1   87.95   15.53
  -6  12  -1   84.43   16.49
   6  12   2  130.41   19.31
   6  12   2  100.49   18.88
   6  12   2  125.08   20.55
  -6  12  -2   93.83   16.14
  -6  12  -2   87.07   16.28
  -6  12  -3   61.49   14.98
   6  12   3   69.98   14.26
   6  12   3   77.17   15.65
  -6  12  -3   53.87   11.61
   6  12   3   76.45   15.92
  -6  12  -3   37.13   10.79
  -6  12  -3   56.89   14.64
  -6  12  -4   56.05   14.73
   6  12   4   62.26   13.08
   6  12   4   71.18   15.72
  -6  12  -4   53.76   12.71
  -6  12  -4   92.45   17.76
  -6  12  -5  115.22   20.27
   6  12   5  131.03   19.86
   6  12   5  128.21   20.98
  -6  12  -5  101.68   17.71
  -6  12  -5  101.87   18.57
  -6  12  -6  103.43   19.41
   6  12   6  144.66   19.16
   6  12   6  113.63   19.19
  -6  12  -6  104.96   18.51
  -6  12  -6   85.58   16.70
  -6  12  -7   30.13    9.43
   6  12   7   23.97    7.88
  -6  12  -7   28.96    9.29
  -6  12  -7   41.23   12.23
  -6  12  -7   24.13    9.41
  -6  12  -8   30.76   10.06
   6  12   8   37.35   10.22
  -6  12  -8   25.29    9.16
  -6  12  -8   44.28   12.14
  -6  12  -9   42.79   10.27
   6  12   9   70.73   14.21
  -6  12  -9   58.30   12.68
  -6  12  -9   78.66   15.68
  -6  12 -10   -0.71    2.94
   6  12  10    0.91    5.41
  -6  12 -10   -3.97    5.51
  -6  12 -10   -0.75    4.41
  -6  12 -10   -1.85    4.19
  -6  12 -11   23.15    6.20
   6  12  11   30.03    9.08
  -6  12 -11   31.79    7.84
  -6  12 -11   31.72   10.05
  -6  12 -11   20.20    7.93
   6  12  12    0.68    4.15
  -6  12 -12    1.55    2.73
  -6  12 -12    3.23    2.48
  -6  12 -12   -5.26    4.87
   6  12  13   15.02    4.47
   6  12  13    9.69    4.05
  -6  12 -13    6.28    3.47
  -6  12 -13    6.33    2.81
  -6  12 -13    2.64    2.45
   6  12  14    9.74    3.40
  -6  12 -14   22.96    6.75
  -6  12 -14   15.84    5.13
  -6  12 -15    2.02    1.70
  -6  12 -15    6.12    2.68
  -6  13  14    4.50    2.12
   6  13 -13    5.88    3.46
  -6  13  13   12.42    4.04
  -6  13  12    3.53    2.97
   6  13 -12    7.53    4.83
   6  13 -11    6.40    3.92
  -6  13  11   -1.82    3.79
   6  13 -11   -0.71    3.77
   6  13 -10    0.69    2.90
  -6  13  10    4.23    5.63
   6  13 -10    5.07    5.00
   6  13  -9    1.56    3.09
  -6  13   9    1.57    5.04
   6  13  -8   12.02    7.68
  -6  13   8   -2.55    5.04
   6  13  -8    6.98    3.34
   6  13  -7   79.58   14.75
   6  13  -7   60.74   14.25
  -6  13   6   16.00    6.41
   6  13  -6   17.81    9.54
  -6  13   5   -7.17    4.68
  -6  13   5    2.73    5.98
   6  13  -5    4.79    5.99
  -6  13   4    2.04    4.71
   6  13  -4    1.20    4.64
  -6  13   4    2.72    3.36
   6  13  -4    0.85    4.83
  -6  13   4    7.71    7.18
  -6  13   3    3.36    4.41
   6  13  -3   -1.19    3.30
  -6  13   3   -7.22    6.96
   6  13  -3    0.97    4.33
   6  13  -3   -6.32    5.80
  -6  13   3   -0.88    3.28
  -6  13   2   22.71    9.87
   6  13  -2   14.22    8.33
  -6  13   2   23.38    7.86
   6  13  -2   12.52    5.84
   6  13  -2   28.56    9.85
  -6  13   2   29.46    9.30
  -6  13   1   86.01   17.22
  -6  13   1   73.70   14.14
   6  13  -1   52.86   13.22
   6  13  -1   72.46   14.89
   6  13  -1   66.41   14.13
  -6  13   1   75.19   16.35
  -6  13   0    6.16    7.59
   6  13   0   -3.48    7.36
   6  13   0    7.56    4.65
   6  13   0    3.06    3.55
  -6  13   0    6.81    4.75
  -6  13   0    2.66    4.34
  -6  13   0    4.57    6.01
  -6  13  -1   55.38   13.67
   6  13   1   58.93   14.01
  -6  13  -1   59.14   12.38
  -6  13  -1   63.95   12.86
   6  13   1   64.06   12.95
   6  13   1   84.05   16.12
  -6  13  -1   83.84   16.90
   6  13   2   20.59    9.13
   6  13   2   37.83   10.16
  -6  13  -2   28.89    8.88
   6  13   2   26.04    9.38
  -6  13  -2   19.95    6.75
  -6  13  -2   31.96   12.18
  -6  13  -3    3.35    7.25
  -6  13  -3   -0.73    3.90
   6  13   3   -4.37    5.64
   6  13   3   12.49    8.38
  -6  13  -3   -6.94    5.25
  -6  13  -3   -0.89    3.12
  -6  13  -4    1.07    4.97
   6  13   4    0.85    4.42
   6  13   4    1.03    5.78
  -6  13  -4    0.91    4.14
  -6  13  -4   -5.53    8.03
  -6  13  -4    1.01    4.31
  -6  13  -5    8.06    3.62
   6  13   5   -4.89    4.31
   6  13   5    3.04    5.44
  -6  13  -5   12.18    5.79
  -6  13  -5    1.01    5.04
  -6  13  -6    4.74    4.21
   6  13   6   19.57    6.80
   6  13   6   21.79    8.51
  -6  13  -6   13.40    6.63
  -6  13  -6   10.98    7.67
  -6  13  -7   55.70   12.02
   6  13   7  119.37   15.86
   6  13   7   74.41   13.30
  -6  13  -7   88.57   16.04
  -6  13  -7   70.61   13.25
  -6  13  -7   72.68   14.75
  -6  13  -8    4.61    4.04
   6  13   8    0.69    2.72
   6  13   8    3.59    5.24
  -6  13  -8    0.80    5.13
  -6  13  -8    2.83    4.41
  -6  13  -8    6.44    4.51
  -6  13  -9    0.67    4.17
   6  13   9    1.88    3.08
   6  13   9    0.84    3.73
  -6  13  -9   -0.70    3.56
  -6  13 -10    4.64    3.48
   6  13  10   10.37    4.59
   6  13  10    5.39    3.13
  -6  13 -10   -1.82    4.01
  -6  13 -10    3.32    4.93
  -6  13 -11    8.13    4.57
   6  13  11   -0.90    2.65
   6  13  11    4.70    4.96
  -6  13 -11    0.51    2.17
  -6  13 -11    6.70    5.37
   6  13  12   12.67    5.04
  -6  13 -12    6.94    3.56
  -6  13 -12    7.79    2.92
  -6  13 -12   10.39    4.74
   6  13  13    8.39    2.84
  -6  13 -13   10.83    3.24
  -6  13 -13    5.55    3.07
  -6  13 -13    8.44    3.56
   6  13  14    4.65    1.95
  -6  13 -14    0.46    2.18
  -6  13 -14    6.69    3.51
  -6  14  13   13.74    3.45
   6  14 -12    5.41    3.46
  -6  14  12    2.64    1.76
   6  14 -11    5.80    3.17
   6  14 -11    9.34    4.64
  -6  14  11   11.38    4.43
   6  14 -10    1.07    2.35
  -6  14  10    1.71    2.24
  -6  14   9    1.30    4.03
   6  14  -9    6.20    4.14
  -6  14   8   48.67   10.21
   6  14  -8   48.10   10.56
   6  14  -8   49.11    8.98
   6  14  -8   55.02   12.34
   6  14  -7   64.10   10.88
   6  14  -7   52.56   11.92
   6  14  -6   36.68    9.79
  -6  14   5   13.80    4.91
  -6  14   5   30.21    9.34
   6  14  -5   23.48    8.84
  -6  14   4    8.44    5.01
   6  14  -4    0.85    3.03
   6  14  -4    1.01    3.77
  -6  14   4   -6.37    5.00
  -6  14   4    2.96    2.40
  -6  14   3   36.91   10.13
   6  14  -3   34.38    9.10
   6  14  -3   29.97    8.32
  -6  14   3   39.73   10.19
   6  14  -3   24.59    9.52
  -6  14   3   30.01    7.80
  -6  14   2   24.19    8.05
   6  14  -2   22.30    7.62
   6  14  -2   26.57    9.39
  -6  14   2   15.00    6.53
   6  14  -2   21.74    9.13
  -6  14   2   20.73    7.84
  -6  14   1   59.25   12.10
   6  14  -1   91.98   15.29
   6  14  -1   73.32   13.50
  -6  14   1   69.82   12.06
   6  14  -1   71.47   14.51
  -6  14   1   70.18   13.00
  -6  14   0  117.90   18.39
   6  14   0  105.50   16.20
   6  14   0  105.50   16.43
  -6  14   0  116.41   16.27
   6  14   0   95.91   16.84
  -6  14   0  121.18   18.46
  -6  14  -1   62.28   13.25
  -6  14  -1   70.71   12.29
   6  14   1   73.23   13.28
  -6  14  -1   70.91   11.78
   6  14   1   73.75   14.24
   6  14   1   66.37   13.68
  -6  14  -1   90.99   16.42
  -6  14  -2   13.12    6.19
  -6  14  -2   20.39    7.32
   6  14   2   21.82    7.26
   6  14   2   22.56    7.48
  -6  14  -2   29.26    9.94
  -6  14  -3   44.35   11.73
  -6  14  -3   27.64    7.30
   6  14   3   38.45    9.07
   6  14   3   44.03   10.67
  -6  14  -3   43.44   11.51
  -6  14  -3   26.90    7.46
  -6  14  -4   -3.43    4.30
   6  14   4    2.90    2.93
   6  14   4    5.32    4.19
  -6  14  -4    2.30    3.66
  -6  14  -4   -1.77    5.88
  -6  14  -5   20.15    6.29
   6  14   5   21.51    7.21
   6  14   5   26.67    7.41
  -6  14  -5   37.04    9.46
  -6  14  -5   33.21    9.91
  -6  14  -5   23.10    7.82
  -6  14  -6   40.75    9.79
   6  14   6   60.99   10.58
   6  14   6   60.78   12.20
  -6  14  -6   50.06   11.57
  -6  14  -6   40.92    9.44
  -6  14  -7   53.64   10.66
   6  14   7   63.23   10.55
   6  14   7   59.03   11.43
  -6  14  -7   47.31   10.68
  -6  14  -7   46.74    9.93
  -6  14  -7   58.20   12.30
  -6  14  -8   55.83   10.26
   6  14   8   74.99   11.26
   6  14   8   54.03   10.55
  -6  14  -8   62.46   12.12
  -6  14  -8   60.87   10.96
  -6  14  -8   57.90   11.79
  -6  14  -9    8.04    5.00
   6  14   9    8.96    3.45
   6  14   9    8.67    4.47
  -6  14  -9    8.91    4.67
  -6  14  -9    6.37    4.05
  -6  14  -9   15.36    6.59
  -6  14 -10    9.12    4.15
   6  14  10   12.18    4.00
   6  14  10   13.17    5.44
  -6  14 -10    8.12    2.70
  -6  14 -10    2.65    2.33
  -6  14 -10    6.33    3.64
   6  14  11    7.68    3.40
  -6  14 -11    9.85    4.05
  -6  14 -11   12.26    3.61
   6  14  12    1.63    1.94
  -6  14 -12    3.35    2.07
  -6  14 -12    3.43    2.75
   6  14  13    9.26    3.00
  -6  14 -13   10.64    3.18
  -6  15  11    1.35    1.83
   6  15 -10    2.33    2.57
  -6  15  10    3.39    2.20
  -6  15   9   73.07   10.35
   6  15  -9   54.11    9.58
   6  15  -8    7.59    4.23
  -6  15   8   10.79    4.81
   6  15  -7   47.32    8.09
   6  15  -7   61.16   11.59
   6  15  -6    7.82    3.33
   6  15  -6    4.51    3.53
   6  15  -6    6.96    4.03
  -6  15   5   25.08    5.60
   6  15  -5   23.22    7.78
   6  15  -5   29.49    7.17
  -6  15   5   26.81    7.37
   6  15  -5   22.95    8.30
  -6  15   4    7.68    4.39
   6  15  -4    4.96    3.17
  -6  15   4   -0.66    4.06
   6  15  -4   10.08    5.64
  -6  15   3   14.45    5.33
   6  15  -3    3.62    3.93
  -6  15   3   24.23    7.54
   6  15  -3   35.23    9.62
  -6  15   3   11.87    5.02
  -6  15   2    7.63    4.48
   6  15  -2    9.45    5.19
  -6  15   2   13.61    5.31
   6  15  -2    1.62    3.60
  -6  15   2   13.49    5.26
   6  15  -1  110.46   15.30
  -6  15   1  102.13   14.50
   6  15  -1  102.91   14.94
   6  15  -1   96.57   15.42
  -6  15   1  110.88   14.43
  -6  15   1  122.13   16.33
  -6  15   0   28.65    8.41
   6  15   0   17.36    6.51
  -6  15   0   20.61    6.29
   6  15   0   13.80    5.72
   6  15   0   31.50    8.54
  -6  15   0   27.88    7.37
  -6  15  -1  107.61   15.40
   6  15   1  111.78   14.90
  -6  15  -1   89.34   12.38
   6  15   1  113.94   16.17
  -6  15  -1  138.67   17.00
  -6  15  -2   10.34    3.41
   6  15   2    5.20    2.91
   6  15   2    9.57    4.97
  -6  15  -2    2.92    4.74
  -6  15  -3   17.04    5.61
   6  15   3    6.87    4.03
  -6  15  -3   19.34    6.09
   6  15   3   16.82    6.44
  -6  15  -3    5.03    3.72
  -6  15  -4    3.34    3.70
   6  15   4    6.53    3.85
   6  15   4    5.73    2.74
  -6  15  -4    8.72    3.47
  -6  15  -4    0.69    3.68
  -6  15  -5   39.42    9.16
   6  15   5   42.40    8.24
   6  15   5   29.66    8.24
  -6  15  -5   37.57    8.80
  -6  15  -5   38.03    9.01
  -6  15  -6    1.75    2.44
   6  15   6    7.68    4.14
   6  15   6    6.97    3.97
  -6  15  -6    8.34    4.01
  -6  15  -7   50.25    9.13
   6  15   7   70.08    9.69
   6  15   7   60.15   10.45
  -6  15  -7   44.15    8.74
  -6  15  -7   46.54    9.27
  -6  15  -8    4.26    2.55
   6  15   8   10.36    3.38
   6  15   8   14.36    5.29
  -6  15  -8   16.98    5.66
  -6  15  -8    9.25    4.57
  -6  15  -8    1.80    2.40
  -6  15  -9   40.51    7.17
   6  15   9   81.89   11.05
  -6  15  -9   73.04   10.91
  -6  15  -9   60.47    8.88
  -6  15  -9   64.56   10.25
  -6  15 -10    3.40    2.51
   6  15  10   -3.08    2.96
  -6  15 -10    1.45    2.16
  -6  15 -10    3.30    2.44
  -6  15 -10    0.49    2.06
   6  15  11   -1.45    1.77
  -6  15 -11    3.11    1.88
  -6  15 -11    0.87    1.76
  -6  15 -11    2.50    2.33
  -6  16   9   -3.89    3.71
   6  16  -9    2.01    1.89
   6  16  -8   66.83    9.18
   6  16  -8   65.97    9.15
   6  16  -7   -0.43    1.83
   6  16  -7    6.08    3.25
   6  16  -6   22.87    5.78
   6  16  -6   19.79    4.90
   6  16  -6   23.85    5.44
   6  16  -5    1.04    2.28
  -6  16   5    5.50    3.62
   6  16  -5    0.87    2.30
   6  16  -5    1.03    2.35
  -6  16   4   14.74    4.56
   6  16  -4   12.61    4.24
  -6  16   4   13.66    4.63
   6  16  -4   22.60    5.87
   6  16  -4   11.86    3.82
  -6  16   3    7.00    3.32
   6  16  -3    2.24    2.98
  -6  16   3    9.05    4.25
   6  16  -3    6.63    4.05
  -6  16   3    2.24    2.31
  -6  16   2   26.69    5.94
   6  16  -2   22.57    6.29
  -6  16   2   35.65    7.10
   6  16  -2   17.57    5.50
  -6  16   2   34.27    6.30
  -6  16   1   -0.53    2.62
   6  16  -1    7.84    4.45
  -6  16   1    7.26    3.72
   6  16  -1    9.89    4.71
  -6  16   1   17.01    5.76
   6  16   0  137.56   15.33
  -6  16   0  123.59   13.44
   6  16   0  149.31   15.69
  -6  16   0  130.63   14.57
  -6  16   0  123.76   14.39
  -6  16  -1    1.12    2.26
  -6  16  -1    8.44    3.34
   6  16   1    5.35    3.60
   6  16   1    7.95    4.33
  -6  16  -1   -2.20    3.75
  -6  16  -2   27.96    7.61
  -6  16  -2   29.21    6.29
   6  16   2   30.38    6.79
   6  16   2   33.50    7.63
  -6  16  -2   31.73    7.81
   6  16   3    8.89    4.53
   6  16   3    1.96    2.34
  -6  16  -3    0.36    2.58
  -6  16  -3   -0.55    3.24
  -6  16  -4   21.99    6.20
   6  16   4   21.39    5.74
   6  16   4   32.93    7.57
  -6  16  -4   28.28    6.65
  -6  16  -5    5.15    2.72
   6  16   5    4.53    2.98
   6  16   5    1.00    2.72
  -6  16  -5    5.88    3.10
  -6  16  -6   15.99    4.97
   6  16   6   25.61    5.28
  -6  16  -6   19.31    5.24
   6  16   6   31.13    6.55
  -6  16  -7    4.73    3.17
  -6  16  -7    0.83    2.07
   6  16   7    6.14    3.09
  -6  16  -7    0.81    1.98
   6  16   8   91.98   10.63
  -6  16  -8   81.92    9.77
  -6  16  -8   68.50    8.45
  -6  16  -8   54.77    8.05
  -6  16  -9   -2.24    2.60
   6  16   9    1.06    1.54
  -6  16  -9    2.19    1.87
   6  17  -7   37.88    5.92
   6  17  -6    9.74    3.54
   6  17  -6    8.75    2.54
   6  17  -5    1.73    1.25
  -6  17   5    3.87    2.12
   6  17  -5    4.37    1.97
   6  17  -5    4.31    2.13
   6  17  -4   11.11    3.86
  -6  17   4   10.77    3.91
   6  17  -4   14.16    3.63
   6  17  -4    6.13    1.97
   6  17  -3    8.29    3.39
   6  17  -3    6.60    3.16
  -6  17   3    9.30    3.78
   6  17  -3    5.80    2.45
  -6  17   2   12.25    3.64
  -6  17   2   17.55    4.51
   6  17  -2   13.95    4.04
  -6  17   2   15.87    3.99
  -6  17   1   29.44    5.96
  -6  17   1   25.92    5.68
   6  17  -1   34.08    6.58
  -6  17   1   40.53    6.79
  -6  17   0    5.07    2.57
  -6  17   0    6.88    3.00
   6  17   0   11.88    3.79
  -6  17   0    9.54    3.63
  -6  17  -1   34.98    6.88
   6  17   1   30.35    6.19
   6  17   1   33.53    6.03
  -6  17  -1   31.08    5.37
  -6  17  -1   22.18    5.54
  -6  17  -2   20.00    4.98
   6  17   2   15.63    4.40
   6  17   2   13.33    3.80
  -6  17  -2   14.65    3.67
  -6  17  -2   13.91    4.37
   6  17   3    4.66    2.52
   6  17   3    8.20    3.13
  -6  17  -3   10.85    4.06
   6  17   4   11.85    3.19
   6  17   4   12.33    3.67
  -6  17  -4   11.51    4.11
  -6  17  -5    3.32    2.48
   6  17   5    3.55    1.99
  -6  17  -5    1.78    2.66
  -6  17  -6    7.57    2.67
   6  17   6   12.53    3.39
   6  17   7   44.32    6.39
   6  18  -1    4.60    1.95
   6  18  -1    4.55    1.93
  -6  18   1    3.91    1.90
  -6  18   1    2.85    1.62
   6  18   0   15.04    3.15
  -6  18   0   12.57    2.84
  -6  18   0   18.96    3.98
   6  18   1    4.62    1.90
  -6  18  -1    1.46    1.08
  -6  18  -1    4.64    2.22
   7   0 -19   27.38    7.21
   7   0 -19   25.59    5.44
   7   0 -18    3.06    3.08
   7   0 -18   15.38    5.08
   7   0 -17   24.00    7.34
   7   0 -17   25.31    7.76
   7   0 -16   -4.06    4.68
   7   0 -16    5.10    3.10
   7   0 -15   -1.26    4.37
   7   0 -14  -21.14   10.24
   7   0 -13   -3.47    8.40
  -7   0  12   -6.33    9.91
   7   0 -12   14.70   10.18
  -7   0  11  616.41   63.28
   7   0 -11  558.40   55.93
  -7   0  10   25.41   14.88
   7   0 -10   12.87    6.13
   7   0 -10   32.26   14.30
  -7   0   9   46.61   16.27
   7   0  -9   31.84   12.34
   7   0  -9   21.98   10.04
   7   0  -9   47.58   16.98
  -7   0   8    1.63    6.89
   7   0  -8    1.42    7.30
   7   0  -8    2.78    5.58
   7   0  -8   -1.61    8.22
  -7   0   7   25.66    9.62
   7   0  -7   40.53   14.71
   7   0  -7   32.04   10.70
  -7   0   6    7.06    8.14
   7   0  -6   -3.95    4.91
   7   0  -6   11.69    7.17
  -7   0   5  164.96   25.84
   7   0  -5  157.29   24.49
   7   0  -5  187.79   26.85
  -7   0   4    1.29    8.09
   7   0  -4   -1.27    6.34
  -7   0   3 1165.14   69.16
   7   0  -3 1200.97   70.97
  -7   0   2    3.55    7.27
   7   0  -2   11.52    8.44
  -7   0   1   70.47   15.78
   7   0  -1   67.34   16.40
  -7   0   0   -1.17    4.90
  -7   0   0    2.48    5.34
  -7   0  -1   59.76   13.62
  -7   0  -1   52.35   14.74
  -7   0  -2    8.81    7.74
  -7   0  -2   16.13    7.22
  -7   0  -3 1259.67   77.50
  -7   0  -3 1262.43   75.68
  -7   0  -4    2.87    7.09
  -7   0  -4    6.18    5.99
  -7   0  -5  182.32   29.29
  -7   0  -5  187.96   28.95
  -7   0  -6    1.42    5.72
  -7   0  -6    1.54    6.71
   7   0   6   -1.64    4.92
  -7   0  -7   22.01   10.89
  -7   0  -7   33.16   11.78
   7   0   7   23.66   10.61
  -7   0  -8   18.60   10.57
  -7   0  -8    4.93    8.00
   7   0   8    5.25    9.75
  -7   0  -9   42.52   15.36
   7   0   9   18.34    8.77
  -7   0 -10   35.60   15.36
   7   0  10   17.41    9.53
  -7   0 -11  546.44   58.66
   7   0  11  479.87   56.24
   7   0  12   12.50   14.98
   7   0  13   14.18   12.62
   7   0  14    8.76   10.05
   7   0  15   10.05    6.21
   7   0  16   -2.24    5.16
   7   0  17   17.71    6.16
   7   0  18    1.24    3.12
   7   0  19   26.45    6.10
   7  -1 -19    4.09    2.52
   7  -1 -19    2.73    3.41
   7  -1 -18   45.13    8.28
   7  -1 -18   58.91   10.63
   7  -1 -17    3.98    4.50
   7  -1 -17    1.95    3.61
   7  -1 -16   -2.02    4.49
   7  -1 -16    3.27    3.85
   7  -1 -15   28.74   11.41
   7  -1 -14    7.49    8.56
   7  -1 -13   20.68   10.96
  -7  -1  12   69.10   23.88
   7  -1 -12   67.49   20.26
  -7  -1  11   31.88   18.08
   7  -1 -11   44.00   15.28
  -7  -1  10  510.46   56.01
   7  -1 -10  483.87   47.93
   7  -1 -10  506.37   52.35
  -7  -1   9  244.78   37.95
   7  -1  -9  189.52   29.01
   7  -1  -9  162.27   27.98
   7  -1  -9  225.75   33.82
  -7  -1   8   27.96   11.39
   7  -1  -8   27.91   12.09
   7  -1  -8   43.57   14.88
   7  -1  -8   30.02   12.15
  -7  -1   7  173.63   28.79
   7  -1  -7  155.54   24.43
   7  -1  -7  119.74   22.00
  -7  -1   6  203.30   30.65
   7  -1  -6  253.44   31.62
   7  -1  -6  211.23   29.17
   7  -1  -5  100.77   19.56
  -7  -1   5  119.33   23.22
   7  -1  -5   85.94   18.51
  -7  -1   4  455.07   42.06
   7  -1  -4  428.81   40.88
  -7  -1   3  638.39   49.16
   7  -1  -3  592.05   47.67
  -7  -1   2  971.21   60.19
   7  -1  -2  985.51   62.73
  -7  -1   1  355.86   35.03
   7  -1  -1  374.35   38.05
  -7  -1   0  125.41   19.41
  -7  -1   0  141.71   22.10
  -7  -1  -1  406.97   37.84
  -7  -1  -1  387.98   38.28
  -7  -1  -2 1102.09   66.62
  -7  -1  -2 1022.80   66.94
  -7  -1  -3  692.66   53.81
  -7  -1  -3  689.86   55.13
  -7  -1  -4  553.97   47.85
  -7  -1  -4  512.75   48.42
  -7  -1  -5  108.76   21.65
  -7  -1  -5  110.72   22.29
  -7  -1  -6  270.79   37.42
  -7  -1  -6  244.22   32.69
   7  -1   6  206.70   32.80
  -7  -1  -7  152.76   25.94
  -7  -1  -7  167.53   28.57
   7  -1   7  136.27   28.24
  -7  -1  -8   46.25   15.66
  -7  -1  -8   58.53   17.30
   7  -1   8   24.05   12.11
  -7  -1  -9  243.43   34.42
   7  -1   9  172.06   31.21
  -7  -1 -10  500.03   53.40
   7  -1  10  422.86   49.57
  -7  -1 -11    9.92    7.36
   7  -1  11   31.42   17.84
   7  -1  12   42.03   17.11
   7  -1  13   41.03   16.34
   7  -1  14    3.51    6.84
   7  -1  15   44.67   14.75
   7  -1  16    5.64    3.64
   7  -1  17    9.32    4.51
   7  -1  18   60.03   10.53
   7  -1  19    9.62    4.06
   7  -2 -19   13.74    4.85
   7   2 -19    2.89    1.80
   7  -2 -19    9.73    3.50
   7   2 -19    0.34    1.47
   7   2 -19   10.56    3.66
   7  -2 -18   11.69    4.27
   7   2 -18   14.02    4.06
   7  -2 -18   13.23    4.67
   7   2 -18   19.06    5.94
   7  -2 -17   21.94    7.00
   7   2 -17   26.30    6.32
   7   2 -17   24.84    7.81
   7  -2 -17   26.57    8.90
   7  -2 -16    4.95    4.59
   7  -2 -16   -3.92    4.58
   7   2 -16    4.68    4.62
   7  -2 -15   32.50   10.28
   7   2 -15   58.03   13.35
   7  -2 -15   38.09    9.85
   7   2 -15   40.45   12.24
   7  -2 -14   97.58   21.59
   7   2 -14   89.19   19.77
   7  -2 -13   20.50    9.69
   7   2 -13   11.31    6.23
   7  -2 -12   27.40   12.64
   7   2 -12   20.82   12.07
   7  -2 -11  106.79   23.79
   7   2 -11  116.03   25.83
  -7  -2  11   65.57   22.41
  -7   2  11  109.78   22.73
   7  -2 -10  172.63   30.79
   7   2 -10  176.10   29.94
   7  -2 -10  169.89   25.99
   7   2 -10  137.58   23.77
  -7  -2  10  211.66   35.79
  -7   2  10  194.04   30.26
   7  -2  -9   63.71   16.40
   7   2  -9   61.60   17.00
   7  -2  -9   63.06   15.92
   7   2  -9   44.57   13.85
  -7  -2   9   56.58   19.97
  -7   2   9   64.22   16.09
   7  -2  -9   85.62   19.75
   7   2  -9   65.55   17.57
   7  -2  -8  291.06   34.41
   7   2  -8  273.11   32.95
   7  -2  -8  272.49   35.53
   7   2  -8  370.66   40.77
   7   2  -8  303.89   33.82
  -7  -2   8  342.74   41.42
  -7   2   8  248.61   32.99
   7  -2  -8  278.85   34.50
   7   2  -8  273.05   33.11
  -7  -2   7  161.94   28.70
  -7   2   7  149.74   24.03
   7  -2  -7  156.90   24.65
   7   2  -7  142.27   23.60
   7  -2  -7  164.35   24.54
   7   2  -7  144.24   24.25
  -7  -2   6  249.29   33.98
  -7   2   6  262.75   31.29
   7  -2  -6  262.47   31.54
   7   2  -6  256.88   30.98
   7  -2  -6  231.68   29.21
   7   2  -6  241.05   29.99
  -7  -2   5  400.40   40.98
  -7   2   5  407.47   38.86
   7  -2  -5  385.52   37.76
   7   2  -5  406.58   38.82
   7  -2  -5  362.57   37.09
   7   2  -5  363.50   36.75
  -7  -2   4  516.47   44.41
  -7   2   4  403.99   38.29
   7  -2  -4  426.95   39.58
   7   2  -4  461.95   41.31
  -7  -2   3  465.85   41.26
  -7   2   3  458.06   39.79
   7  -2  -3  468.92   41.41
   7   2  -3  488.72   41.20
  -7  -2   2  990.61   60.23
  -7   2   2  904.17   56.84
   7   2  -2  985.97   60.69
   7  -2  -2  965.99   61.73
  -7  -2   1    6.61    7.76
  -7   2   1    3.12    4.69
   7  -2  -1    6.42    8.12
   7   2  -1   10.68    8.58
  -7  -2   0  370.71   36.29
  -7   2   0  364.80   34.37
  -7   2   0  359.71   33.61
  -7  -2   0  379.59   36.29
  -7  -2  -1    5.93    5.96
  -7   2  -1    2.11    3.94
  -7  -2  -1   -2.53    4.66
  -7   2  -1    6.75    5.56
  -7  -2  -2 1023.11   64.73
  -7   2  -2 1004.50   61.29
  -7   2  -2 1011.93   62.97
  -7  -2  -3  567.46   48.86
  -7   2  -3  572.06   47.45
  -7  -2  -3  539.17   45.99
  -7   2  -3  549.79   45.11
  -7  -2  -4  524.65   48.54
  -7   2  -4  562.37   48.72
  -7  -2  -4  512.93   44.88
  -7   2  -4  486.50   43.98
  -7  -2  -5  452.54   45.13
  -7   2  -5  445.08   44.34
  -7  -2  -5  417.09   40.77
  -7   2  -5  427.71   42.12
   7   2   5  331.49   39.23
   7  -2   5  406.39   44.05
  -7   2  -6  303.81   37.64
  -7  -2  -6  277.48   35.56
  -7  -2  -6  264.07   33.26
  -7   2  -6  300.97   35.83
   7   2   6  225.54   31.87
   7  -2   6  234.69   34.36
  -7  -2  -7  159.44   27.75
  -7   2  -7  190.79   30.26
  -7  -2  -7  153.07   26.15
  -7   2  -7  186.85   29.34
   7   2   7  102.25   22.31
   7  -2   7  142.02   27.45
  -7   2  -7  170.69   31.05
   7   2   8  202.29   31.81
   7  -2   8  299.69   40.41
  -7  -2  -8  321.17   39.75
  -7   2  -8  317.14   40.83
  -7  -2  -8  365.85   41.02
  -7   2  -8  326.73   40.13
  -7   2  -8  223.62   36.08
  -7  -2  -9   57.67   16.98
  -7   2  -9   69.07   18.93
   7   2   9   64.08   17.83
   7  -2   9   66.30   19.03
  -7   2  -9   88.08   22.52
  -7  -2 -10  175.83   30.06
  -7   2 -10  206.64   34.08
   7   2  10  158.31   28.77
   7  -2  10  172.52   30.63
  -7   2 -10  125.92   30.13
  -7  -2 -11   86.29   24.59
  -7   2 -11   80.06   24.87
   7   2  11  100.72   22.93
   7  -2  11   99.49   24.89
  -7   2 -11   74.39   22.31
   7   2  12   28.82   12.46
   7  -2  12   30.39   15.57
  -7   2 -12   17.26   11.89
   7   2  13   18.40   13.13
   7  -2  13   38.77   15.57
  -7   2 -13   -2.01    9.02
   7   2  14  102.98   22.07
   7  -2  14   84.90   22.86
  -7   2 -14  116.66   25.65
   7   2  15   36.54   11.13
   7  -2  15   53.74   15.68
   7   2  16    7.66    6.31
   7  -2  16    4.43    5.79
   7   2  17   23.97    7.31
   7  -2  17   23.27    9.24
   7   2  18    6.98    3.84
   7  -2  18    8.43    4.23
   7   2  19    6.19    3.41
   7  -2  19   11.33    3.94
   7  -3 -19    8.91    3.22
   7   3 -19    4.51    2.60
   7  -3 -19    0.83    1.46
   7   3 -19    3.02    2.36
   7   3 -19    3.33    1.93
   7  -3 -18   18.89    6.23
   7   3 -18   16.11    6.12
   7  -3 -18   19.01    5.00
   7   3 -18   14.15    4.30
   7  -3 -17   -1.17    2.73
   7   3 -17    3.30    2.23
   7  -3 -17    2.99    3.23
   7   3 -17   10.21    4.86
   7   3 -16    5.65    4.28
   7  -3 -16    0.95    2.75
   7   3 -16   -2.60    2.94
   7  -3 -16   -4.39    4.10
   7  -3 -15   15.38    7.25
   7   3 -15   23.82    9.27
   7  -3 -15   12.43    6.93
   7   3 -15   14.12    6.65
   7  -3 -14   84.62   16.85
   7   3 -14   93.97   17.41
   7  -3 -14   53.01   15.60
   7   3 -14   72.34   17.33
   7  -3 -13   45.14   15.57
   7   3 -13   29.25   12.37
   7  -3 -13   28.39   10.71
   7   3 -13   21.66    9.96
   7  -3 -12   49.29   15.02
   7   3 -12   52.32   17.21
   7  -3 -12   46.22   13.75
   7   3 -12   64.90   15.89
   7  -3 -11   20.44   12.52
   7   3 -11   17.27   12.76
   7  -3 -11    9.34    5.02
   7   3 -11   33.15   12.12
  -7  -3  11   13.01   12.27
  -7   3  11   19.38    7.88
   7  -3 -10   -5.41   11.46
   7   3 -10   10.13    7.55
   7  -3 -10    9.30    6.13
   7   3 -10    6.49    5.21
  -7  -3  10   -1.77    6.64
  -7   3  10    1.28    4.68
   7  -3  -9   43.82   11.89
   7   3  -9   48.50   13.55
   7  -3  -9   28.84   10.71
   7   3  -9   54.42   16.21
   7   3  -9   56.78   14.82
  -7  -3   9   57.83   18.32
  -7   3   9   57.05   14.82
   7  -3  -9   51.74   15.19
   7   3  -9   43.22   12.80
   7  -3  -8   13.61    7.65
   7   3  -8    4.76    4.53
   7  -3  -8   17.44   10.67
   7   3  -8   16.58    9.93
   7   3  -8   12.19    7.94
  -7  -3   8    7.68    7.24
  -7   3   8   13.16    8.34
   7  -3  -8   15.54    9.35
   7   3  -8   21.56    9.91
  -7  -3   7   55.88   15.46
  -7   3   7   23.27   10.59
   7  -3  -7   30.21   11.82
   7   3  -7   39.06   12.55
   7  -3  -7   45.09   11.26
   7   3  -7   52.84   13.32
  -7  -3   6  649.43   53.90
  -7   3   6  532.89   44.47
   7  -3  -6  616.51   49.32
   7   3  -6  601.10   47.81
   7  -3  -6  560.19   45.87
   7   3  -6  601.00   46.59
  -7  -3   5  146.95   23.63
  -7   3   5  175.27   24.73
   7  -3  -5  173.11   24.80
   7   3  -5  162.36   23.89
   7   3  -5  128.82   20.71
   7  -3  -5  170.75   23.79
  -7  -3   4 1108.45   66.91
  -7   3   4 1006.28   61.62
   7  -3  -4 1143.22   65.42
   7   3  -4 1042.70   62.70
  -7   3   3  151.30   21.92
   7   3  -3  136.32   21.36
  -7  -3   3  151.40   22.98
   7  -3  -3  154.94   22.53
  -7   3   2  641.16   45.95
  -7  -3   2  627.39   47.23
   7   3  -2  618.95   47.93
   7  -3  -2  672.14   50.58
  -7  -3   1  189.14   24.87
  -7   3   1  156.71   20.82
  -7   3   1  164.40   22.06
  -7  -3   0    3.37    4.83
  -7   3   0   -1.01    6.83
  -7  -3   0    5.96    3.52
  -7   3   0    4.27    4.97
  -7  -3  -1  214.70   28.75
  -7   3  -1  212.09   25.28
  -7  -3  -1  197.72   25.74
  -7   3  -1  177.37   23.98
  -7  -3  -2  703.10   53.23
  -7   3  -2  676.56   49.59
  -7  -3  -2  688.35   51.27
  -7   3  -2  611.22   46.68
  -7   3  -3  143.40   21.91
  -7  -3  -3  188.41   27.67
  -7   3  -3  151.57   24.12
  -7  -3  -3  151.62   24.27
  -7  -3  -4 1304.93   77.04
  -7   3  -4 1232.47   73.70
  -7  -3  -4 1197.75   71.57
  -7   3  -4 1188.61   70.08
  -7   3  -5  172.71   26.63
  -7  -3  -5  204.61   29.04
  -7  -3  -5  181.01   26.70
  -7   3  -5  162.83   24.74
   7   3   5  150.43   24.87
   7  -3   5  156.59   28.32
  -7   3  -5  157.64   28.54
   7   3   6  475.83   45.85
   7  -3   6  535.38   52.83
  -7  -3  -6  649.90   53.59
  -7   3  -6  634.45   53.29
  -7  -3  -6  589.49   49.09
  -7   3  -6  615.63   50.67
  -7   3  -6  526.91   54.56
  -7   3  -6  594.68   58.19
  -7  -3  -7   49.35   13.66
  -7   3  -7   27.59   10.96
  -7  -3  -7   44.13   13.79
  -7   3  -7   42.68   15.45
   7   3   7   28.64    9.16
   7  -3   7   63.08   16.38
  -7   3  -7   47.35   15.73
  -7   3  -7   54.35   17.45
  -7  -3  -8    2.86    6.39
  -7   3  -8   19.40   10.92
   7   3   8   12.75    6.79
   7  -3   8   21.05   11.78
  -7   3  -8   14.96   11.22
  -7   3  -8    9.33    8.03
  -7   3  -9   62.54   15.58
  -7  -3  -9   41.57   14.46
   7   3   9   35.73   12.56
   7  -3   9   44.94   15.50
  -7   3  -9   28.13   14.00
  -7  -3 -10   12.48    9.51
  -7   3 -10   20.10   15.81
   7   3  10    6.31   11.46
   7  -3  10   -1.71    7.30
  -7   3 -10    2.16    9.87
   7   3  11   18.17   10.93
   7  -3  11   15.78   10.69
  -7   3 -11   15.92   15.11
   7   3  12   72.06   20.65
   7  -3  12   54.51   17.18
  -7   3 -12   50.27   17.76
   7   3  13   41.92   13.92
   7  -3  13   32.29   11.48
  -7   3 -13   59.60   19.47
   7   3  14   92.70   20.51
   7  -3  14   96.70   22.12
  -7   3 -14  116.52   26.64
   7   3  15   18.71    8.03
   7  -3  15   20.12   11.09
  -7   3 -15    9.05    9.61
   7   3  16   -0.87    4.49
   7  -3  16    9.44    5.98
  -7   3 -16    1.15    4.65
   7   3  17    4.61    2.97
   7  -3  17   10.18    4.71
  -7   3 -17    8.24    5.79
   7   3  18   12.13    4.95
   7  -3  18   11.77    4.70
   7   3  19    1.04    1.10
   7  -3  19    1.53    1.92
   7   4 -19    3.92    2.66
   7   4 -19   10.32    3.99
   7  -4 -18    2.08    1.97
   7   4 -18    0.47    1.75
   7  -4 -18    1.58    1.47
   7   4 -18    2.49    2.28
   7   4 -17   20.97    7.08
   7  -4 -17   19.96    6.58
   7   4 -17   12.86    4.18
   7  -4 -17   26.98    6.16
   7  -4 -16   -5.86    5.02
   7   4 -16    1.23    2.41
   7  -4 -16    3.51    3.59
   7   4 -16   -0.79    3.80
   7  -4 -15   20.63    6.34
   7   4 -15   40.20    9.77
   7  -4 -15   46.10   12.78
   7   4 -15   32.74   10.82
   7  -4 -14    3.74    4.26
   7   4 -14   10.25    4.99
   7  -4 -14    8.06    9.06
   7   4 -14   10.93    6.61
   7  -4 -13   -4.76    8.47
   7   4 -13   10.07    7.60
   7  -4 -13    4.25    4.31
   7   4 -13    1.07    4.90
   7   4 -12   14.04    6.18
   7  -4 -12    3.58   10.71
   7   4 -12    3.24    4.22
   7  -4 -12   18.57    8.13
   7  -4 -11   38.88   12.03
   7   4 -11   31.44   10.84
   7  -4 -11   55.48   19.13
   7   4 -11   25.32   10.73
   7   4 -11   36.99   12.76
  -7  -4  11   23.98   12.64
  -7   4  11   37.03   12.67
   7   4 -10   10.02    7.74
   7  -4 -10    6.12    7.03
   7   4 -10   17.96    6.87
   7  -4 -10   25.44   10.96
   7   4 -10   18.90    8.93
  -7  -4  10    4.64    6.11
  -7   4  10   11.25    7.32
   7  -4  -9   14.37    4.89
   7   4  -9   19.73    9.60
   7  -4  -9    1.72    5.74
   7   4  -9   22.24    8.14
   7   4  -9   14.09    7.02
  -7  -4   9   11.84    7.74
  -7   4   9   19.98    8.29
   7  -4  -9   10.81    8.88
   7   4  -9    5.73    4.64
   7   4  -8    6.70    5.56
   7  -4  -8   16.12    8.76
   7  -4  -8   30.36   13.46
   7   4  -8   16.37    9.00
   7   4  -8   18.56   10.32
  -7  -4   8    5.63    6.58
  -7   4   8    1.10    4.29
   7  -4  -8    9.98    7.15
   7   4  -8    2.67    7.10
   7  -4  -7  297.03   31.73
   7   4  -7  281.49   30.58
   7   4  -7  267.28   34.34
  -7  -4   7  325.41   37.10
  -7   4   7  279.13   31.57
   7  -4  -7  315.35   35.79
   7   4  -7  302.99   34.24
   7  -4  -6    5.34    3.66
   7   4  -6    8.53    5.99
  -7  -4   6   21.91    9.79
  -7   4   6    3.25    4.45
   7  -4  -6    7.45    6.64
   7   4  -6    3.52    5.53
   7  -4  -5   18.96    7.44
   7   4  -5   25.55    7.70
  -7  -4   5   16.02    9.08
  -7   4   5   15.16    5.44
   7  -4  -5   19.21    7.88
   7   4  -5   15.93    8.20
   7   4  -5    2.88    3.38
  -7  -4   4    3.54    4.49
  -7   4   4    1.06    5.49
   7   4  -4   16.19    8.43
   7  -4  -4   -4.28    5.13
  -7  -4   3   62.98   15.06
  -7   4   3   58.59   13.47
   7   4  -3   71.58   15.51
   7  -4  -3   61.20   14.75
  -7  -4   2   19.63    9.93
  -7   4   2   27.18    9.90
   7  -4  -2   24.33    8.30
   7   4  -2   23.76    9.39
  -7   4   1  210.97   25.13
  -7  -4   1  203.32   26.01
  -7   4   1  225.10   25.56
  -7  -4   1  211.19   26.74
  -7  -4   0   16.81    7.29
  -7   4   0   18.05    6.52
  -7  -4   0   11.88    6.40
  -7   4   0    5.32    5.49
  -7   4  -1  201.04   25.51
  -7  -4  -1  209.84   26.90
  -7   4  -1  249.38   27.35
  -7  -4  -1  211.11   27.63
  -7  -4  -2   36.77   10.19
  -7   4  -2   33.75   10.29
  -7  -4  -2   38.79   12.30
  -7   4  -2   35.55   12.57
  -7  -4  -3   87.37   17.41
  -7   4  -3   53.00   14.37
  -7  -4  -3   82.58   18.60
  -7   4  -3   63.99   15.44
  -7   4  -3   44.14   15.63
  -7  -4  -4    1.19    6.57
  -7   4  -4    1.14    3.83
  -7  -4  -4   -3.87    7.10
  -7   4  -4    6.14    7.45
   7   4   4    6.88    4.65
   7  -4   4    5.29    6.70
  -7   4  -4    4.88    6.38
  -7   4  -4   17.34   11.94
  -7  -4  -5   11.95    4.94
  -7   4  -5   12.88    8.33
  -7  -4  -5   14.23    8.62
  -7   4  -5   25.30   12.72
   7   4   5   15.40    7.97
   7  -4   5   13.81    7.59
  -7   4  -5   14.58    9.14
  -7   4  -5   20.64   10.58
  -7  -4  -6    7.43    6.18
  -7   4  -6    3.68    4.39
  -7  -4  -6   13.30   10.04
  -7   4  -6   10.55    9.49
   7   4   6    2.46    6.80
   7  -4   6    4.29    5.19
  -7   4  -6   -1.65    8.02
  -7   4  -6   10.41    9.38
   7   4   7  214.47   29.10
   7  -4   7  261.47   34.76
  -7  -4  -7  300.10   36.75
  -7   4  -7  301.57   36.77
  -7  -4  -7  304.06   35.65
  -7   4  -7  325.70   36.80
  -7   4  -7  221.47   35.51
  -7   4  -7  245.00   35.83
  -7  -4  -8   21.42   12.54
  -7   4  -8   20.75   11.61
   7   4   8    9.12    6.17
   7  -4   8    9.01    6.93
  -7   4  -8  -14.18   13.44
  -7   4  -8   14.48    9.08
  -7   4  -8   -1.87    8.69
  -7   4  -9    1.66    7.15
  -7  -4  -9   12.85   11.02
   7   4   9    5.45    5.15
   7  -4   9    7.67    4.64
  -7   4  -9   24.93   15.07
  -7   4  -9    1.95    9.13
  -7   4 -10   16.59   10.96
  -7  -4 -10    7.16    9.11
   7   4  10   17.19    9.05
   7  -4  10   43.74   15.37
  -7   4 -10   14.23   13.45
  -7   4 -10   -1.98   11.24
   7   4  11   39.86   14.13
   7  -4  11   52.18   17.13
  -7   4 -11   68.53   22.29
  -7   4 -11    9.56    6.93
   7   4  12    2.76    5.15
   7  -4  12   15.69    9.10
  -7   4 -12    6.54   12.85
   7   4  13   -1.29    3.27
   7  -4  13   -4.51    7.29
  -7   4 -13    4.16    5.61
   7   4  14   -1.15    6.01
   7  -4  14    1.38    7.62
   7   4  15   33.60    9.45
   7  -4  15   23.74   10.32
  -7   4 -15   42.78   14.64
   7   4  16   -2.28    3.04
   7  -4  16    8.52    5.18
  -7   4 -16    2.30    5.99
   7   4  17   12.08    5.19
   7  -4  17   10.52    5.50
  -7   4 -17   22.71    9.04
   7   4  18    1.27    2.32
   7  -4  18    3.47    2.39
  -7   4 -18    4.05    3.00
   7   4  19    3.59    2.19
   7  -4  19   -0.33    1.55
   7   5 -19    2.68    1.66
   7  -5 -18   14.12    4.59
   7   5 -18   12.10    4.43
   7  -5 -18    6.71    3.03
   7   5 -18    9.06    2.82
   7   5 -17    3.50    2.26
   7  -5 -17    1.79    2.92
   7   5 -17   -0.53    2.77
   7  -5 -17    0.43    1.82
   7  -5 -16    3.85    3.51
   7   5 -16   -2.06    4.91
   7  -5 -16    2.76    2.49
   7   5 -16    8.65    4.13
   7  -5 -15    0.68    2.83
   7   5 -15    7.04    4.54
   7  -5 -15   -5.82    7.22
   7   5 -15    0.87    3.55
   7  -5 -14   10.51    5.17
   7   5 -14   28.04    8.90
   7  -5 -14   11.94    7.04
   7   5 -14    8.61    6.08
   7  -5 -13    8.34    5.74
   7   5 -13    1.81    3.10
   7  -5 -13   -1.43    8.01
   7   5 -13    2.59    5.76
   7  -5 -12   64.68   18.57
   7   5 -12   50.86   16.06
   7  -5 -12   60.18   13.88
   7   5 -12   74.14   15.40
   7   5 -12   41.49   11.40
   7  -5 -11   -1.78    9.46
   7   5 -11    9.65    9.38
   7  -5 -11    9.71    7.10
   7   5 -11   17.89    8.59
   7   5 -11   15.82    7.66
   7  -5 -10  183.46   24.47
   7   5 -10  145.16   22.13
   7   5 -10  167.11   28.93
   7  -5 -10  153.87   28.51
   7   5 -10  178.39   27.53
  -7  -5  10  118.14   22.08
  -7   5  10  177.25   22.87
   7  -5  -9    1.71    5.82
   7   5  -9   18.74   10.65
   7  -5  -9    2.18    4.00
   7   5  -9    7.29    4.91
   7   5  -9   10.23    3.79
  -7  -5   9   -1.28    3.20
  -7   5   9   -1.00    5.15
   7  -5  -8    5.28    3.56
   7   5  -8   17.24    7.32
   7  -5  -8   12.76    8.32
   7   5  -8   16.12    9.87
   7   5  -8   26.77   11.24
   7   5  -8    8.13    5.32
  -7  -5   8    7.56    4.25
  -7   5   8   14.10    8.17
   7  -5  -8    2.87    5.92
   7   5  -8   17.17    8.69
   7  -5  -7   19.44    7.98
   7   5  -7    7.95    3.65
   7  -5  -7   26.61   12.03
   7   5  -7   23.25    9.80
   7   5  -7    5.11    5.21
   7   5  -7   36.46   12.62
  -7  -5   7   30.89   11.21
  -7   5   7   20.35    7.94
   7  -5  -7   13.21    9.26
   7   5  -7   30.66   10.58
   7  -5  -6   16.03    6.49
   7   5  -6   23.62    9.60
   7   5  -6    8.12    5.12
   7   5  -6   18.45    9.81
   7   5  -6    6.25    6.64
  -7  -5   6    8.43    7.27
  -7   5   6   14.43    8.45
   7  -5  -6    8.55    8.67
   7   5  -6   19.33    9.83
   7   5  -5   35.69   11.29
   7   5  -5   35.82   11.01
  -7  -5   5   25.71    9.70
  -7   5   5   40.44   10.88
   7   5  -5   15.90    7.42
   7  -5  -5   28.18   10.41
   7  -5  -5   23.31    9.36
   7   5  -5   38.21   11.54
   7  -5  -4  239.00   27.42
   7   5  -4  219.63   26.36
   7   5  -4  179.52   23.53
   7   5  -4  162.08   22.83
  -7  -5   4  230.99   27.98
  -7   5   4  186.50   24.22
   7  -5  -4  239.56   28.50
   7   5  -4  234.36   27.67
   7   5  -3   32.79    9.87
   7  -5  -3   33.39   11.93
  -7  -5   3   39.40   11.01
  -7   5   3   29.91    9.95
   7   5  -3   51.74   13.13
   7  -5  -3   42.99   11.62
   7   5  -3   30.37    9.60
   7   5  -3   23.82    7.40
  -7  -5   2  455.12   39.66
  -7   5   2  384.63   34.42
  -7  -5   2  453.03   38.13
  -7   5   2  369.06   34.97
  -7   5   2  307.47   39.48
  -7  -5   1   67.04   14.83
  -7   5   1   38.48   10.69
  -7  -5   1   55.74   13.89
  -7   5   1   35.31   10.86
  -7   5   1   39.47   14.12
  -7  -5   0  249.53   29.28
  -7   5   0  236.87   26.23
  -7  -5   0  231.11   27.87
  -7   5   0  248.36   27.55
  -7   5   0  195.90   31.06
  -7  -5  -1   49.73   12.74
  -7   5  -1   50.82   13.14
  -7  -5  -1   64.13   15.53
  -7   5  -1   21.84    6.65
  -7   5  -1   40.31   16.44
  -7  -5  -2  461.97   40.67
  -7   5  -2  449.28   39.21
  -7  -5  -2  445.78   39.53
  -7   5  -2  435.61   37.55
  -7   5  -2  346.93   42.70
  -7  -5  -3   44.60   12.70
  -7   5  -3   58.07   14.20
  -7  -5  -3   35.61   11.52
  -7   5  -3   39.20   10.39
   7   5   3   41.72   12.24
   7  -5   3   28.03    9.50
  -7   5  -3   51.21   16.21
  -7   5  -3   17.41    8.91
   7   5   4  202.87   25.70
   7  -5   4  203.39   27.70
  -7  -5  -4  245.52   30.33
  -7   5  -4  242.29   29.02
  -7  -5  -4  217.95   27.00
  -7   5  -4  226.36   26.91
  -7   5  -4  180.02   29.41
  -7   5  -4  163.71   27.62
  -7  -5  -5   16.00    9.00
  -7   5  -5   25.51    9.01
  -7  -5  -5   33.22   12.42
  -7   5  -5   36.97   11.98
   7  -5   5   11.19    7.40
   7   5   5   22.62    8.53
  -7   5  -5   23.58    9.66
  -7   5  -5   25.44   13.00
  -7  -5  -6   20.35    8.39
  -7   5  -6   28.12   11.11
  -7  -5  -6    6.37    6.51
  -7   5  -6    4.99    9.68
   7   5   6    6.64    3.18
   7  -5   6   16.72    9.63
  -7   5  -6    1.88    7.88
  -7   5  -6    6.29    4.61
  -7   5  -6   11.49    9.20
  -7  -5  -7   26.90   11.80
  -7   5  -7   20.27    7.34
   7   5   7   18.32    9.28
   7  -5   7   22.45    9.65
  -7   5  -7   34.67   14.60
  -7   5  -7   17.69   10.62
  -7   5  -7   15.60    7.25
  -7  -5  -8    1.42    5.71
  -7   5  -8   14.31    9.70
   7   5   8    2.34    4.25
   7  -5   8    2.69    4.64
  -7   5  -8    8.39    7.11
  -7   5  -8   -1.85    8.63
  -7   5  -8    8.95    5.45
  -7   5  -9    8.05   10.05
  -7  -5  -9   -1.60    8.71
   7   5   9   -1.21    4.20
   7  -5   9    8.20    6.62
  -7   5  -9   -1.76    8.00
  -7   5  -9    7.94    9.43
  -7  -5 -10  138.72   27.83
   7   5  10  176.45   25.68
   7  -5  10  161.40   26.30
  -7   5 -10  149.12   29.54
  -7   5 -10  126.69   28.76
   7   5  11    3.55    5.24
   7  -5  11    8.30    6.46
  -7   5 -11    7.61   12.74
  -7   5 -11   -6.10   10.49
   7   5  12   60.49   14.20
   7  -5  12   44.77   14.48
  -7   5 -12   51.44   17.13
  -7   5 -12   37.00   13.80
   7   5  13    3.20    4.25
   7  -5  13   -1.29    5.84
  -7   5 -13   -5.45    8.77
  -7   5 -13    9.35    8.76
   7   5  14   12.30    6.43
   7  -5  14   23.36   11.34
  -7   5 -14   24.12    9.48
  -7   5 -14   23.31   10.73
   7   5  15    0.79    2.19
   7  -5  15   11.99    7.12
  -7   5 -15    4.05    5.81
   7   5  16    6.28    4.15
   7  -5  16   10.51    6.40
  -7   5 -16    7.39    5.63
   7   5  17    5.24    3.25
   7  -5  17   -5.36    3.49
  -7   5 -17    3.13    2.91
   7   5  18    8.32    3.28
   7  -5  18   13.22    4.38
  -7   5 -18    8.84    4.08
   7   5  19   -0.24    1.03
   7  -5  19    6.93    2.66
  -7   5 -19    4.20    2.32
   7   6 -18    3.01    1.75
   7   6 -18    0.72    2.10
   7  -6 -17    9.38    3.17
   7   6 -17    8.16    2.40
   7  -6 -17    9.98    4.46
   7   6 -17   13.53    4.52
   7   6 -17   13.03    5.00
   7   6 -17   20.16    6.21
   7  -6 -16    3.55    2.16
   7   6 -16    3.49    2.37
   7  -6 -16    7.54    3.64
   7   6 -16   -1.68    3.17
   7  -6 -15    5.03    2.72
   7   6 -15    5.45    3.02
   7  -6 -15    3.99    2.71
   7   6 -15   -2.86    3.24
   7  -6 -14   21.84    9.37
   7   6 -14   14.33    6.00
   7  -6 -14   21.58    6.41
   7   6 -14   26.73    7.05
   7  -6 -13    3.13    3.49
   7   6 -13   -0.72    3.64
   7  -6 -13   -1.21    5.90
   7   6 -13    6.57    2.95
   7   6 -13    1.98    4.40
   7   6 -12   20.73   11.06
   7  -6 -12    5.24    3.71
   7   6 -12    6.42    3.97
   7  -6 -12   17.12    9.56
   7   6 -12   10.72    9.06
   7  -6 -11  424.52   34.89
   7   6 -11  384.52   31.86
   7  -6 -11  330.68   40.17
   7   6 -11  348.70   39.85
   7   6 -11  346.63   37.47
   7   6 -11  320.43   29.01
   7  -6 -10   29.00    8.27
   7   6 -10   26.61    8.98
   7  -6 -10    6.73    4.44
   7   6 -10   19.82    9.70
   7   6 -10    5.77    6.12
   7   6 -10   26.52    8.82
  -7   6  10    7.51    6.02
   7  -6  -9   19.83   12.31
   7   6  -9   -6.00    9.22
   7  -6  -9    0.97    3.37
   7   6  -9    0.89    4.71
   7   6  -9    1.49    5.56
   7   6  -9    5.05    4.37
  -7  -6   9    9.93    5.62
  -7   6   9    2.64    3.08
   7   6  -8  234.21   31.10
   7  -6  -8  237.39   26.13
   7   6  -8  216.11   24.05
   7  -6  -8  197.90   29.92
   7   6  -8  180.05   24.11
   7   6  -8  261.47   33.97
  -7  -6   8  211.47   26.92
  -7   6   8  218.20   24.28
   7   6  -8  174.45   26.18
   7  -6  -7   31.30   10.11
   7  -6  -7   41.77   13.33
   7   6  -7   26.35   10.01
   7   6  -7   38.55   10.49
   7   6  -7   35.02   11.89
   7   6  -7   14.98    6.21
   7   6  -7   22.76    8.44
  -7  -6   7   23.33    9.49
  -7   6   7   30.88    8.41
   7  -6  -7   22.01    9.79
   7   6  -7   36.73   11.84
   7  -6  -6   36.00   14.45
   7   6  -6   31.99   11.02
  -7   6   6   25.67    8.68
   7   6  -6   14.53    8.36
   7   6  -6   13.50    5.74
   7   6  -6    5.47    4.15
  -7  -6   6   25.43    9.48
  -7   6   6   13.22    4.66
   7  -6  -6    7.64    5.71
   7   6  -6   16.76    7.28
   7  -6  -6   18.95    9.19
   7   6  -6    9.86    4.68
  -7   6   5  136.09   18.70
   7  -6  -5  145.01   20.47
   7   6  -5  140.54   19.66
   7   6  -5  123.61   22.37
   7   6  -5  108.09   18.61
   7   6  -5  107.58   19.32
  -7   6   5  151.12   20.86
  -7  -6   5  145.12   21.77
   7  -6  -5  121.47   20.19
   7   6  -5  112.37   18.93
  -7   6   4  174.81   20.70
   7   6  -4  176.37   22.29
   7  -6  -4  185.52   23.56
   7   6  -4  164.27   23.00
   7   6  -4  147.15   22.40
  -7  -6   4  220.60   27.21
  -7   6   4  247.31   26.52
   7  -6  -4  193.73   24.50
   7   6  -4  183.82   23.91
   7   6  -3  712.44   51.00
   7   6  -3  713.84   52.81
  -7   6   3  934.57   54.86
  -7  -6   3  968.12   57.33
  -7   6   3  963.00   54.54
   7  -6  -3  893.73   54.90
   7   6  -3  840.70   52.11
   7   6  -2  295.31   28.25
   7  -6  -2  276.29   28.33
  -7  -6   2  288.43   30.72
  -7  -6   2  328.03   31.79
  -7   6   2  300.55   29.00
  -7   6   2  312.20   30.57
   7   6  -2  247.61   28.59
   7   6  -2  258.13   30.89
  -7   6   2  316.79   40.95
   7  -6  -1   42.91   11.65
  -7  -6   1   25.67    9.02
  -7   6   1   49.35   11.69
  -7  -6   1   18.39    8.48
  -7   6   1   29.51   10.34
   7   6  -1   27.22    9.48
  -7   6   1   17.45    9.51
  -7  -6   0   33.06    9.66
  -7   6   0   31.72   11.47
  -7  -6   0   21.77    8.74
  -7   6   0   33.24   10.66
   7   6   0   21.26    9.81
  -7   6   0   33.08   12.33
  -7  -6  -1   42.41   12.06
  -7   6  -1   41.41   11.34
  -7  -6  -1   28.98   11.96
  -7   6  -1   44.52   12.76
   7  -6   1   25.46    8.69
  -7   6  -1   24.21   10.92
   7   6   2  275.14   27.67
   7  -6   2  300.64   30.04
  -7  -6  -2  353.39   34.05
  -7   6  -2  319.67   32.12
  -7  -6  -2  333.09   32.65
  -7   6  -2  298.83   30.20
  -7   6  -2  231.41   33.96
   7   6   3  771.79   50.15
   7  -6   3  873.18   54.44
  -7  -6  -3  972.47   59.34
  -7   6  -3  953.46   57.88
  -7  -6  -3  882.27   55.77
  -7   6  -3  898.30   54.57
  -7   6  -3  831.92   65.63
  -7   6  -3  724.71   59.09
   7   6   4  160.82   21.30
   7  -6   4  176.50   23.73
  -7  -6  -4  187.66   26.02
  -7   6  -4  210.41   25.80
  -7  -6  -4  202.99   26.26
  -7   6  -4  220.80   25.68
  -7   6  -4  163.96   28.92
  -7   6  -4  181.16   28.62
  -7  -6  -5  122.11   20.16
  -7  -6  -5  158.12   23.87
  -7   6  -5  122.55   20.75
  -7   6  -5  124.03   19.87
   7  -6   5  120.16   20.35
   7   6   5  108.44   17.60
  -7   6  -5  154.00   28.17
  -7   6  -5  109.28   22.89
  -7   6  -5  137.66   24.47
  -7  -6  -6   11.41    4.13
  -7   6  -6   18.86    9.90
  -7  -6  -6   26.47   12.23
  -7   6  -6   25.70   10.44
   7   6   6   18.55    7.55
   7  -6   6   16.92    6.18
  -7   6  -6   12.84    6.62
  -7   6  -6   21.39   10.87
  -7   6  -6   21.90    8.44
  -7  -6  -7   30.23   11.93
  -7   6  -7   44.38   13.26
   7   6   7   29.96    9.91
   7  -6   7   32.45   11.08
  -7   6  -7   10.82    9.71
  -7   6  -7   21.50   10.56
  -7   6  -7   50.81   18.56
   7   6   8  203.14   24.88
   7  -6   8  193.19   26.01
  -7  -6  -8  155.59   25.97
  -7   6  -8  226.58   31.24
  -7   6  -8  193.80   30.12
  -7   6  -8  218.47   34.20
  -7   6  -8  170.48   30.25
  -7   6  -9    9.29    6.90
  -7  -6  -9    6.26    5.40
   7   6   9   10.10    7.06
   7  -6   9   10.73    6.80
  -7   6  -9    1.65    8.04
  -7   6  -9    8.40   10.77
  -7   6  -9   15.29   11.32
   7   6  10   15.60    5.91
   7  -6  10   19.17    7.96
  -7   6 -10   13.52    9.19
  -7   6 -10    2.01    8.80
   7   6  11  408.14   34.96
   7  -6  11  361.45   36.96
  -7   6 -11  430.17   47.19
  -7   6 -11  372.58   47.87
   7   6  12   15.24    6.44
   7  -6  12   13.78    9.26
  -7   6 -12    8.33   10.08
  -7   6 -12    1.83    6.40
   7   6  13    4.15    2.63
   7  -6  13    1.08    3.74
  -7   6 -13   -1.57    7.68
  -7   6 -13   -1.54    6.04
   7   6  14   32.23    9.24
   7  -6  14   31.74    9.77
  -7   6 -14   53.21   16.87
  -7   6 -14   47.35   13.30
   7   6  15    2.45    3.06
   7  -6  15    0.81    3.36
  -7   6 -15   -3.53    3.44
  -7   6 -15   -3.63    4.56
   7   6  16    1.46    1.66
   7  -6  16    5.83    4.69
  -7   6 -16    9.37    6.78
   7   6  17    6.94    3.23
   7  -6  17   13.37    4.82
  -7   6 -17    9.97    4.52
   7   6  18    6.23    2.66
   7  -6  18    3.85    2.52
   7   7 -18   21.07    4.73
   7   7 -18   18.00    3.58
   7   7 -17    7.82    3.22
   7   7 -17    9.03    3.32
   7   7 -16    1.37    1.71
   7   7 -16   -0.42    2.22
   7   7 -16    5.68    2.98
   7   7 -16    8.09    3.83
   7  -7 -15   37.12    8.14
   7   7 -15   17.61    5.95
   7   7 -15   24.97    5.37
   7  -7 -14    2.18    4.44
   7   7 -14    4.44    2.92
   7   7 -14    2.79    2.77
   7  -7 -14    4.52    4.89
   7   7 -14    2.90    2.72
   7  -7 -13  109.34   17.95
   7  -7 -13  107.35   14.35
   7   7 -13   63.78   13.28
   7   7 -13   72.22   10.71
   7   7 -13   60.31   10.30
   7   7 -13  122.04   18.55
   7   7 -12   18.83    6.69
   7  -7 -12    8.92    6.55
   7   7 -12    4.17    4.27
   7  -7 -12   10.27    4.43
   7   7 -12   15.35    5.88
   7   7 -12    8.17    7.77
   7  -7 -11   29.93   10.80
   7   7 -11   37.77   11.48
   7  -7 -11   41.49   10.08
   7   7 -11   33.28    8.25
   7   7 -11   42.78   13.35
   7   7 -11   20.48    6.49
   7   7 -10  150.17   24.81
   7  -7 -10  244.89   24.72
   7   7 -10  196.44   20.62
   7   7 -10  221.01   31.06
   7   7 -10  233.91   25.91
  -7   7   9  223.86   23.91
   7   7  -9  181.31   28.17
   7  -7  -9  185.43   22.13
   7   7  -9  225.13   22.08
   7   7  -9  195.15   24.17
   7   7  -9  179.69   28.49
  -7   7   9  231.90   29.50
  -7   7   8  100.66   15.73
   7   7  -8   93.44   14.62
   7   7  -8   80.56   18.42
   7   7  -8   98.43   20.49
   7   7  -8   92.61   17.23
   7  -7  -8   97.67   15.42
  -7   7   7  297.96   27.13
   7   7  -7  275.61   32.47
   7  -7  -7  291.84   28.00
   7   7  -7  270.49   25.08
   7   7  -7  262.55   28.64
   7   7  -7  253.93   28.59
   7   7  -7  290.58   36.47
  -7   7   7  298.87   27.35
   7   7  -7  231.46   28.36
  -7   7   6   81.61   14.15
   7   7  -6  119.83   19.66
   7   7  -6   78.59   17.89
   7   7  -6   78.37   15.94
   7   7  -6   79.21   16.18
   7  -7  -6   79.79   14.73
  -7   7   6  104.93   16.31
   7   7  -6   90.41   14.38
   7   7  -6   95.44   17.55
  -7   7   5  127.01   17.40
   7   7  -5  146.75   18.72
   7  -7  -5  146.59   20.01
   7   7  -5  111.77   21.21
   7   7  -5  109.52   18.80
   7   7  -5   98.66   18.84
  -7   7   5  135.23   19.12
   7   7  -5   90.11   16.35
  -7   7   4  157.01   19.86
  -7   7   4  173.85   21.36
  -7   7   4  207.95   23.53
   7   7  -4  154.47   20.68
   7   7  -4  158.21   22.64
   7   7  -4  180.59   24.83
   7   7  -4  176.06   27.18
  -7  -7   3  758.73   49.75
  -7   7   3  721.55   45.94
  -7   7   3  738.16   45.29
   7   7  -3  615.21   42.29
   7   7  -3  627.60   47.28
   7   7  -3  581.36   48.24
  -7  -7   2  356.48   32.55
  -7  -7   2  317.41   30.12
  -7   7   2  327.20   29.68
  -7   7   2  341.39   30.85
   7   7  -2  291.18   31.57
   7   7  -2  259.44   32.29
  -7  -7   1  379.71   33.53
  -7   7   1  360.86   32.51
  -7  -7   1  367.66   32.54
  -7   7   1  354.89   31.46
   7   7  -1  327.84   36.04
  -7  -7   0  247.52   27.94
  -7   7   0  275.89   27.61
  -7  -7   0  227.36   26.14
  -7   7   0  279.18   27.76
   7   7   0  210.96   28.63
  -7  -7  -1  389.88   34.57
  -7   7  -1  335.71   31.51
  -7  -7  -1  415.48   34.88
  -7   7  -1  386.64   32.85
  -7   7  -1  331.52   40.65
   7   7   1  308.38   35.26
  -7  -7  -2  341.76   32.06
  -7   7  -2  364.96   32.46
  -7   7  -2  305.30   28.59
  -7   7  -2  331.37   40.89
   7   7   2  279.59   33.42
  -7   7  -3  671.32   45.34
  -7  -7  -3  720.45   48.03
  -7   7  -3  672.81   44.08
  -7   7  -3  653.81   57.81
   7   7   3  506.67   45.57
  -7   7  -3  590.48   57.16
  -7   7  -3  558.04   50.90
   7   7   4  172.72   21.22
  -7  -7  -4  170.68   23.01
  -7   7  -4  198.56   24.26
  -7   7  -4  210.80   23.88
  -7   7  -4  189.70   30.44
  -7   7  -4  160.91   29.89
  -7   7  -4  160.84   26.39
  -7  -7  -5  112.23   19.37
  -7   7  -5  111.76   18.84
  -7   7  -5  124.36   18.93
   7   7   5  110.14   16.65
  -7   7  -5  114.88   24.12
  -7   7  -5  130.91   26.85
  -7   7  -5   95.99   20.95
  -7   7  -6   88.90   16.64
   7   7   6   87.83   15.27
  -7   7  -6   74.45   20.05
  -7   7  -6  102.83   21.83
  -7   7  -6   67.27   17.22
   7   7   7  243.76   25.03
  -7   7  -7  253.27   30.79
  -7   7  -7  259.25   34.12
  -7   7  -7  297.00   40.35
  -7   7  -7  237.51   32.98
  -7   7  -8   83.45   17.91
   7   7   8   93.52   15.32
  -7   7  -8   84.71   22.23
  -7   7  -8  100.91   21.76
  -7   7  -8   78.65   19.35
   7   7   9  209.05   22.49
   7  -7   9  209.49   25.64
  -7   7  -9  201.05   31.36
  -7   7  -9  227.65   33.72
  -7   7  -9  170.90   29.01
   7   7  10  213.88   22.33
   7  -7  10  199.91   24.21
  -7   7 -10  293.57   37.31
  -7   7 -10  211.39   33.71
   7   7  11   23.92    7.64
   7  -7  11   32.24    9.41
  -7   7 -11   35.23   14.25
  -7   7 -11   25.91   12.12
   7   7  12    5.43    2.97
   7  -7  12   19.21    7.04
  -7   7 -12   16.16   10.27
  -7   7 -12   19.11   10.01
   7   7  13  102.54   14.26
   7  -7  13   86.72   15.57
  -7   7 -13  134.54   22.95
  -7   7 -13   84.45   18.65
   7  -7  14    6.95    5.21
   7   7  14    5.93    4.19
  -7   7 -14    3.60    5.66
  -7   7 -14   -2.18    7.29
   7   7  15   33.52    7.00
   7  -7  15   37.02    8.62
  -7   7 -15   56.52   13.17
  -7   7 -15   48.87   10.74
   7   7  16    2.09    1.75
   7  -7  16    0.49    1.52
  -7   7 -16   -1.62    4.76
   7   7  17    5.58    2.37
  -7   7 -17   13.12    5.82
  -7   7 -18   38.32    7.41
   7   8 -17    8.95    3.13
   7   8 -16   17.21    4.92
   7   8 -15   20.32    5.71
   7   8 -15   35.32    7.71
   7   8 -14   67.26   10.52
   7   8 -14   91.20   13.87
   7   8 -13    0.63    2.66
   7   8 -13   -0.57    2.99
   7   8 -13    0.89    3.85
   7   8 -13    1.52    4.66
   7   8 -12   74.34   13.11
   7   8 -12  103.82   18.55
   7   8 -12   82.61   13.32
   7   8 -11   15.64    6.36
   7   8 -11    3.25    2.67
   7   8 -11   11.56    8.65
   7   8 -10   79.03   16.22
   7   8 -10  135.18   23.44
   7   8 -10  118.76   17.69
   7   8  -9   13.02    8.87
   7   8  -9    8.87    8.40
   7   8  -9   10.74    7.32
   7   8  -8  258.76   28.60
   7   8  -8  247.88   34.11
  -7   8   8  299.12   33.39
  -7   8   7  183.13   20.43
   7   8  -7  188.14   24.66
   7   8  -7  209.06   25.35
   7   8  -7  225.00   32.19
  -7   8   7  233.60   31.27
  -7   8   6  399.10   31.39
   7   8  -6  401.18   36.31
   7   8  -6  383.63   35.40
   7   8  -6  432.78   44.41
  -7   8   6  504.89   49.14
  -7   8   5   81.84   13.78
   7   8  -5   74.28   18.43
   7   8  -5   94.41   17.64
   7   8  -5   76.85   17.77
  -7   8   5  126.05   24.90
   7   8  -4  334.05   33.65
   7   8  -4  335.14   34.94
   7   8  -4  304.55   35.92
  -7   8   4  436.30   49.22
   7   8  -3   38.91   11.91
   7   8  -3   43.26   13.38
  -7   8   3   11.34    7.57
   7   8  -2  545.86   44.22
   7   8  -2  641.95   51.71
  -7   8   2  670.42   59.11
  -7   8   2  664.56   61.46
   7   8  -1   66.39   15.03
   7   8  -1   74.27   16.99
  -7   8   1   36.98   13.96
  -7   8   1   81.58   21.86
   7   8   0  273.82   33.22
   7   8   1   50.13   15.58
  -7   8  -1   33.82   13.03
   7   8   2  568.59   48.66
  -7   8  -2  623.73   58.76
   7   8   3    2.61    4.97
  -7   8  -3   12.35    8.17
  -7   8  -3   21.24   11.52
  -7   8  -4  315.55   38.25
   7   8   4  298.49   34.45
  -7   8  -4  350.32   43.50
  -7   8  -4  279.03   33.74
   7   8   5   79.77   17.29
  -7   8  -5   75.62   21.44
  -7   8  -5   93.34   20.44
  -7   8  -5   92.48   19.77
  -7   8  -6  460.76   45.16
  -7   8  -6  380.37   44.61
  -7   8  -6  322.67   37.01
  -7   8  -7  172.62   27.51
  -7   8  -7  220.98   33.14
  -7   8  -7  139.31   24.52
  -7   8  -8  304.70   36.23
  -7   8  -8  276.64   35.29
  -7   8  -8  284.93   35.26
  -7   8  -9   20.47   10.73
  -7   8  -9    1.43    6.53
  -7   8  -9   20.94   10.16
  -7   8 -10  126.12   23.14
  -7   8 -10  123.46   23.32
  -7   8 -11    8.13    8.09
  -7   8 -11   21.86    9.48
   7   8  12   70.65   10.78
  -7   8 -12   87.91   18.81
  -7   8 -13    2.31    3.53
  -7   8 -13   -5.74    6.14
  -7   8 -14  119.74   20.18
  -7   8 -14  118.34   18.32
  -7   8 -15   19.74    6.80
  -7   8 -15   20.97    6.97
  -7   8 -16    6.26    3.99
  -7   8 -16    5.30    3.12
  -7   8 -17    9.68    4.11
  -7   8 -17    0.72    2.36
   7   9 -16    5.17    2.68
   7   9 -15   16.15    4.88
   7   9 -15   24.02    5.70
   7   9 -14   33.47    7.89
   7   9 -14   49.66    8.90
   7   9 -13   27.47    6.75
   7   9 -13   32.48    9.05
   7   9 -13   37.11    8.59
   7   9 -12    2.56    2.84
   7   9 -12   -4.00    4.87
   7   9 -12    3.46    3.24
   7   9 -11   57.63   11.48
   7   9 -11   78.01   16.59
   7   9 -11   84.43   14.10
   7   9 -10    6.61    6.58
   7   9 -10   -2.59    5.15
   7   9 -10    2.40    2.73
   7   9  -9   76.32   17.42
   7   9  -9   86.86   15.83
   7   9  -8   50.97   15.36
   7   9  -8   54.10   12.42
   7   9  -8   42.89   10.40
  -7   9   8   31.58   11.24
   7   9  -7  265.18   28.95
   7   9  -7  298.23   29.53
   7   9  -7  271.69   34.29
  -7   9   7  286.74   33.55
  -7   9   6  250.52   23.90
   7   9  -6  251.88   28.21
   7   9  -6  281.75   31.04
   7   9  -6  231.94   31.61
  -7   9   6  292.99   36.19
   7   9  -5  248.79   29.22
   7   9  -5  299.77   31.34
   7   9  -5  280.56   35.17
  -7   9   5  258.12   36.09
   7   9  -4  128.36   20.79
   7   9  -4  123.22   22.00
  -7   9   4  131.94   26.82
   7   9  -3  289.70   30.95
   7   9  -3  283.24   34.05
   7   9  -3  312.56   34.10
  -7   9   3  319.24   40.95
   7   9  -2  193.00   25.32
   7   9  -2  229.93   29.55
   7   9  -2  194.76   27.65
  -7   9   2  258.89   36.00
  -7   9   2  233.05   35.18
   7   9  -1  405.87   36.99
   7   9  -1  338.57   36.78
  -7   9   1  444.74   45.99
   7   9  -1  427.11   41.08
  -7   9   1  340.36   42.95
   7   9   0   69.52   16.69
   7   9   0   60.48   15.80
   7   9   0   56.67   13.48
  -7   9   0   53.18   16.68
   7   9   1  346.26   37.39
  -7   9  -1  438.44   45.60
  -7   9  -1  348.94   42.77
  -7   9  -2  226.00   32.12
   7   9   2  211.32   28.34
  -7   9  -2  155.99   27.91
  -7   9  -3  310.48   36.70
   7   9   3  258.07   31.81
  -7   9  -3  247.94   36.46
  -7   9  -3  258.52   32.95
  -7   9  -4   79.21   13.97
   7   9   4  130.78   21.97
  -7   9  -4  103.00   23.04
  -7   9  -4   99.63   19.84
  -7   9  -5  202.24   23.30
   7   9   5  283.09   33.02
  -7   9  -5  238.58   35.73
  -7   9  -5  237.14   30.49
  -7   9  -6  255.87   26.69
   7   9   6  253.93   31.08
  -7   9  -6  304.50   38.99
  -7   9  -6  232.58   29.90
   7   9   7  256.08   31.42
  -7   9  -7  202.72   28.61
  -7   9  -7  272.70   35.02
  -7   9  -8   35.59   12.05
  -7   9  -8   34.92   12.20
  -7   9  -8   36.95   12.46
  -7   9  -9   79.84   16.49
  -7   9  -9   65.68   15.85
  -7   9  -9   60.78   14.93
  -7   9 -10    4.98    4.30
  -7   9 -10   -1.26    7.56
  -7   9 -10    5.18    3.91
  -7   9 -11   55.93   13.80
  -7   9 -11   69.80   16.56
  -7   9 -12    3.23    3.75
  -7   9 -12   -2.19    3.17
  -7   9 -12   -1.11    5.50
  -7   9 -13   46.05   11.74
  -7   9 -13   31.47   10.25
  -7   9 -14   50.24   11.99
  -7   9 -14   47.58   11.15
  -7   9 -15   29.58    7.95
  -7   9 -15   15.89    5.36
  -7   9 -16    0.59    2.33
  -7   9 -16    0.45    2.45
  -7  10  16   -2.32    2.28
   7  10 -16   -1.12    1.49
  -7  10  15   18.08    4.67
   7  10 -15   15.76    4.25
   7  10 -15   18.52    4.43
   7  10 -14    1.48    3.15
   7  10 -14   10.45    3.87
   7  10 -13   14.12    5.08
   7  10 -13    4.20    1.89
   7  10 -12    3.44    2.48
   7  10 -12   -0.54    3.58
   7  10 -11   -0.69    2.88
   7  10 -11    2.08    5.50
   7  10 -11    2.38    2.14
   7  10 -10    1.60    2.65
   7  10 -10    4.76    5.69
   7  10  -9   10.41    5.88
   7  10  -9   16.93    6.79
   7  10  -8   19.19    7.96
   7  10  -8   21.08    7.81
   7  10  -8   22.89    7.87
  -7  10   8   19.71    7.23
   7  10  -7  186.64   23.90
   7  10  -7  201.19   23.41
   7  10  -7  189.61   28.45
  -7  10   7  169.22   24.81
   7  10  -6   23.97    8.54
   7  10  -6   34.00   11.34
   7  10  -6   24.45    9.63
  -7  10   6    9.50    6.89
   7  10  -5    5.23    7.09
   7  10  -5   16.63    7.77
  -7  10   5   10.61    7.90
   7  10  -4   14.76    7.95
   7  10  -4   27.48    9.48
  -7  10   4   14.74   13.19
   7  10  -3    1.36    5.25
   7  10  -3    9.55    7.03
   7  10  -3    8.07    6.43
  -7  10   3  -12.00   11.21
   7  10  -2   60.63   16.08
   7  10  -2   35.27    9.33
   7  10  -2   57.48   14.48
  -7  10   2   48.88   14.99
   7  10  -1  173.63   23.42
   7  10  -1  176.76   24.92
   7  10  -1  156.25   24.22
  -7  10   1  181.79   27.94
  -7  10   1  176.08   29.79
   7  10   0   57.80   15.31
   7  10   0   42.92   11.43
   7  10   0   42.87   14.35
  -7  10   0   74.46   17.78
   7  10   1  180.95   26.14
  -7  10  -1  159.02   22.28
   7  10   1  183.00   24.96
  -7  10  -1  202.69   28.89
   7  10   2   39.64   12.70
   7  10   2   48.58   13.30
  -7  10  -2   57.29   14.98
  -7  10  -2   40.09   15.11
   7  10   3   -1.13    3.75
   7  10   3    2.41    4.03
  -7  10  -3    6.57    5.92
  -7  10  -3    5.50    6.87
   7  10   4   28.34    9.25
   7  10   4   27.70   10.07
  -7  10  -4   14.50    9.07
  -7  10  -4   29.73    8.37
   7  10   5   28.89    9.76
   7  10   5   19.44    9.50
  -7  10  -5    9.32    7.94
  -7  10  -5    6.64    4.34
  -7  10  -5   11.18    7.50
  -7  10  -6   41.99   13.40
   7  10   6   32.07   11.09
  -7  10  -6    8.55    4.49
   7  10   7  192.21   27.15
  -7  10  -7  190.89   25.76
  -7  10  -7  200.63   27.99
  -7  10  -8    9.40    5.61
  -7  10  -8    3.57    3.53
  -7  10  -9   13.31    6.21
   7  10   9   22.20    9.11
  -7  10  -9   17.40    9.94
  -7  10 -10    5.09    4.23
  -7  10 -10   -5.52    3.86
  -7  10 -11   -3.32    3.48
  -7  10 -11   -2.06    4.63
  -7  10 -11   -4.08    4.45
  -7  10 -12    3.26    3.54
  -7  10 -12    4.65    4.40
  -7  10 -12    3.65    3.53
  -7  10 -13   20.58    5.37
  -7  10 -13   14.76    6.24
  -7  10 -13   19.65    6.97
  -7  10 -14   -0.71    5.38
  -7  10 -14    7.09    2.48
  -7  10 -15   24.35    6.67
  -7  10 -15   14.22    5.29
  -7  10 -16   -1.51    1.96
  -7  10 -16    3.84    2.94
  -7  11  15    1.38    1.61
  -7  11  14   29.10    5.87
   7  11 -14   25.10    5.88
   7  11 -13    4.88    3.69
   7  11 -12    4.97    3.33
   7  11 -12    6.33    4.21
   7  11 -11    0.61    2.84
   7  11 -11    2.59    2.71
   7  11 -10    1.43    2.78
   7  11 -10    5.07    6.60
   7  11  -9    1.62    3.99
   7  11  -9    1.14    5.76
   7  11  -8   25.90   10.11
   7  11  -8   42.45   10.46
   7  11  -8   41.14    9.79
  -7  11   7   -1.85    3.85
   7  11  -7   -7.76    7.50
   7  11  -7    3.75    5.15
   7  11  -7    3.26    2.93
   7  11  -6   32.02   10.04
   7  11  -6   24.58    7.51
  -7  11   6   20.16    7.50
   7  11  -5   12.86    6.32
   7  11  -5   15.02    7.75
  -7  11   5    5.18    6.62
   7  11  -4   13.22    8.01
   7  11  -4   25.00    8.84
   7  11  -4   20.94    7.72
  -7  11   4   27.55   10.65
   7  11  -3   15.46    7.57
   7  11  -3    2.01    3.73
   7  11  -3    8.41    7.89
  -7  11   3    6.21    5.31
   7  11  -2   -7.54    8.12
   7  11  -2    9.06    3.04
   7  11  -2   -1.09    4.64
  -7  11   2    8.01   11.69
   7  11  -1   13.54    7.46
   7  11  -1    8.08    3.94
  -7  11   1   13.22    3.98
   7  11  -1   16.94    7.23
  -7  11   1    6.66    3.93
  -7  11   1    3.22    6.55
   7  11   0  181.46   24.81
  -7  11   0  186.65   23.07
   7  11   0  177.80   25.76
  -7  11   0  169.38   25.00
  -7  11   0  151.48   27.25
  -7  11  -1   14.50    6.39
   7  11   1    8.30    6.84
   7  11   1   21.72    8.30
  -7  11  -1   23.20   10.96
   7  11   2   -1.16    4.83
   7  11   2    4.56    3.93
  -7  11  -2    1.71    4.56
  -7  11  -2    5.99    6.25
  -7  11  -2    2.44    5.40
   7  11   3    5.57    5.42
   7  11   3   16.88    7.94
   7  11   3   10.23    5.02
  -7  11  -3   17.25   11.53
  -7  11  -3    3.65    4.60
  -7  11  -4   15.24    8.58
   7  11   4   32.72   10.01
   7  11   4   26.92    8.33
   7  11   4   33.02   10.61
  -7  11  -4   19.37    8.22
  -7  11  -5   26.55   10.01
   7  11   5   18.51    8.17
   7  11   5    3.45    4.62
  -7  11  -5   12.01    7.71
  -7  11  -6   28.14   11.71
   7  11   6   32.71   10.52
  -7  11  -6   15.38    7.10
  -7  11  -7    8.89    6.42
   7  11   7    2.36    5.74
  -7  11  -7   -2.31    3.79
  -7  11  -7    4.38    5.94
  -7  11  -8   33.44    8.53
   7  11   8   39.60   10.63
  -7  11  -8   43.40   12.13
  -7  11  -8   32.75    9.88
  -7  11  -9    4.24    4.07
   7  11   9    6.31    3.74
  -7  11  -9   -2.10    6.03
  -7  11  -9    3.01    3.48
  -7  11 -10   11.25    5.77
   7  11  10    0.92    2.55
  -7  11 -10    3.22    4.81
  -7  11 -10   -2.80    5.33
  -7  11 -11    7.28    4.78
  -7  11 -11    2.54    4.54
  -7  11 -12    5.67    2.36
  -7  11 -12    7.45    4.48
  -7  11 -13    2.55    2.65
  -7  11 -14   32.72    7.55
  -7  11 -14   22.01    5.65
   7  11  15    2.71    1.52
  -7  11 -15    2.39    1.69
  -7  11 -15   -0.41    2.65
  -7  12  14    9.82    3.42
   7  12 -14    7.33    2.60
  -7  12  13   10.20    3.61
   7  12 -13    4.54    2.48
   7  12 -12    2.88    2.77
  -7  12  12   -0.48    2.89
   7  12 -12    2.18    2.62
   7  12 -11   36.74    7.70
  -7  12  11   65.85   10.96
   7  12 -11   43.02    9.73
   7  12 -10   -3.67    3.62
   7  12 -10    3.28    3.79
   7  12  -9   12.67    5.41
   7  12  -9    8.51    7.16
   7  12  -8    3.91    4.00
   7  12  -8    7.36    3.81
  -7  12   7    0.68    2.40
   7  12  -7   -1.68    6.20
   7  12  -7    5.00    2.52
  -7  12   6    3.36    3.29
   7  12  -6    0.88    4.65
   7  12  -6    0.78    3.54
  -7  12   5    3.01    3.43
   7  12  -5    2.43    5.97
   7  12  -5    3.62    3.33
   7  12  -5    3.35    2.68
  -7  12   4    1.15    4.24
   7  12  -4    7.25    8.66
   7  12  -4   11.01    6.95
   7  12  -4    6.26    5.49
  -7  12   4   18.21    6.79
  -7  12   4   13.57    6.03
  -7  12   3   89.33   17.85
   7  12  -3   65.84   15.45
   7  12  -3   72.93   13.97
  -7  12   3   60.40   12.98
   7  12  -3   91.74   16.28
  -7  12   2   -2.66    5.78
   7  12  -2    5.92    7.32
  -7  12   2    3.45    4.03
   7  12  -2    3.96    5.40
  -7  12   1   32.48   11.62
   7  12  -1   18.67    8.22
  -7  12   1   24.36    8.25
   7  12  -1   29.68    9.74
  -7  12   0    5.38    7.12
  -7  12   0   16.27    6.86
   7  12   0    4.59    3.86
   7  12   0   -3.13    4.54
  -7  12   0    4.02    3.55
   7  12   1   28.08    8.86
  -7  12  -1   12.25    6.52
   7  12   1   34.61   11.13
   7  12   1   17.68    7.15
  -7  12  -1   20.60    7.31
  -7  12  -2   12.62    9.88
   7  12   2    1.09    5.47
   7  12   2    2.76    4.70
  -7  12  -2    3.84    5.12
   7  12   2    5.25    3.41
  -7  12  -2   -5.17    7.13
  -7  12  -3   87.97   17.33
   7  12   3   85.69   15.94
   7  12   3   98.87   16.03
   7  12   3   98.53   17.83
  -7  12  -3   79.28   16.27
  -7  12  -4   14.88    7.24
   7  12   4   11.38    4.91
   7  12   4    7.77    4.12
   7  12   4    7.35    5.11
  -7  12  -4   -3.15    6.32
  -7  12  -5   -5.42    4.49
   7  12   5    5.85    3.66
   7  12   5   -1.06    2.96
  -7  12  -5   -1.05    3.40
  -7  12  -5   -3.14    5.64
  -7  12  -6   -5.04    6.70
   7  12   6   -0.80    3.88
   7  12   6    6.43    5.71
  -7  12  -6    4.17    3.30
  -7  12  -7    5.45    4.45
   7  12   7    7.66    5.59
   7  12   7   12.41    8.14
  -7  12  -7    6.09    4.05
  -7  12  -8   12.00    6.40
   7  12   8   20.91    7.35
   7  12   8   18.71    7.44
  -7  12  -8   18.76    7.76
  -7  12  -8   19.32    9.32
  -7  12  -9   10.30    5.61
   7  12   9    7.32    4.79
   7  12   9   11.75    6.31
  -7  12  -9    9.92    6.43
  -7  12  -9   11.91    6.83
  -7  12  -9   14.45    6.70
  -7  12 -10   -1.70    2.17
   7  12  10    3.58    4.91
   7  12  10   -6.22    4.37
  -7  12 -10   -1.64    2.63
  -7  12 -10    2.53    3.19
  -7  12 -10   -0.77    4.39
   7  12  11   83.26   11.31
   7  12  11   58.31   10.21
  -7  12 -11   57.72   11.38
  -7  12 -11   54.84    9.13
  -7  12 -11   44.00    9.96
   7  12  12    5.11    3.31
  -7  12 -12    3.58    2.35
  -7  12 -12   -1.79    2.07
  -7  12 -12    1.91    3.14
   7  12  13    7.81    2.87
  -7  12 -13    7.09    4.04
  -7  12 -14   10.36    3.76
   7  13 -13   16.83    4.07
  -7  13  13   24.22    4.53
  -7  13  12    1.11    1.95
   7  13 -12   -2.39    3.16
   7  13 -11    8.08    3.51
  -7  13  11   20.17    5.89
   7  13 -11   11.71    4.02
   7  13 -10   26.58    6.33
  -7  13  10   21.95    5.86
   7  13 -10   19.37    6.63
   7  13  -9   20.25    5.96
  -7  13   9   13.53    4.58
   7  13  -9   22.89    7.39
   7  13  -8   30.78    7.54
   7  13  -7   54.52   10.99
   7  13  -7   43.37    9.60
  -7  13   6    8.34    3.03
   7  13  -6    5.34    4.46
  -7  13   6    2.27    3.16
   7  13  -6    2.68    2.24
   7  13  -6    0.99    7.03
  -7  13   5   58.72   11.16
   7  13  -5   56.30   11.51
  -7  13   5   70.96   12.89
   7  13  -5   61.08   11.81
   7  13  -5   66.00   14.59
  -7  13   4    0.86    3.64
   7  13  -4    5.28    4.54
  -7  13   4    1.52    3.60
   7  13  -4   15.43    7.19
   7  13  -4   11.70    5.32
  -7  13   4    0.60    2.90
  -7  13   3   48.66   11.74
   7  13  -3   37.37   11.22
  -7  13   3   32.02    8.74
   7  13  -3   46.34   10.25
  -7  13   3   31.29    7.77
  -7  13   2   29.16    9.09
  -7  13   2   28.19    8.84
   7  13  -2   26.81    9.93
   7  13  -2   16.48    6.16
  -7  13   2   20.57    7.22
  -7  13   1  103.09   17.85
   7  13  -1   71.64   15.32
   7  13  -1   95.66   15.58
   7  13  -1   95.11   15.64
  -7  13   1   74.83   12.79
  -7  13   1  111.61   17.80
  -7  13   0   50.56   12.92
   7  13   0   68.55   14.38
   7  13   0   71.65   13.05
   7  13   0   85.59   14.91
  -7  13   0   83.69   13.82
  -7  13   0   78.66   15.00
   7  13   1  107.75   16.33
   7  13   1   69.81   14.73
   7  13   1   87.30   15.38
  -7  13  -1   87.45   13.21
  -7  13  -1   93.97   15.25
  -7  13  -1  104.40   17.58
   7  13   2   28.32   10.20
   7  13   2   30.43    8.26
  -7  13  -2   25.98    6.92
   7  13   2   28.81   10.07
  -7  13  -2   29.00    8.31
  -7  13  -2   20.69    6.93
  -7  13  -3   39.78   10.53
   7  13   3   50.15   11.63
   7  13   3   52.97   10.86
   7  13   3   52.01   12.32
  -7  13  -3   43.60    9.99
  -7  13  -3   48.24   12.87
  -7  13  -4   12.81    6.56
   7  13   4    4.53    4.25
   7  13   4    6.50    4.27
  -7  13  -4   -1.91    5.25
  -7  13  -4    8.86    5.07
  -7  13  -5   65.29   13.34
   7  13   5   85.56   13.80
   7  13   5   81.86   14.82
  -7  13  -5   75.85   14.47
  -7  13  -6    4.81    4.13
   7  13   6    3.46    3.63
   7  13   6    0.90    4.30
  -7  13  -6   -4.42    4.45
  -7  13  -7   51.58   10.87
   7  13   7   69.54   11.48
   7  13   7   72.48   13.16
  -7  13  -7   52.46   10.67
  -7  13  -7   69.62   12.86
  -7  13  -7   50.50   11.23
  -7  13  -8   18.29    5.99
   7  13   8   44.95    9.80
   7  13   8   38.13    9.52
  -7  13  -8   40.64   10.25
  -7  13  -8   32.29    8.15
  -7  13  -9   25.36    6.79
   7  13   9   41.35    8.27
   7  13   9   30.69    7.58
  -7  13  -9   21.29    6.20
  -7  13  -9   35.17    9.37
  -7  13 -10   13.71    5.09
   7  13  10   14.73    5.59
  -7  13 -10   18.94    5.47
  -7  13 -10   28.77    7.62
  -7  13 -10   11.86    5.21
   7  13  11   17.40    4.75
  -7  13 -11   21.25    5.32
  -7  13 -11   12.81    4.75
  -7  13 -11    5.99    3.33
   7  13  12    2.79    2.03
  -7  13 -12    1.75    1.17
  -7  13 -12   -1.98    2.84
  -7  13 -12   -3.26    3.54
  -7  13 -13   28.19    6.10
   7  14 -11    0.71    2.23
  -7  14  11    1.39    2.28
   7  14 -10   15.62    4.60
   7  14 -10   20.53    5.80
  -7  14  10   23.91    4.94
   7  14  -9   -3.13    3.58
  -7  14   9   -2.05    2.86
   7  14  -8   18.13    5.46
   7  14  -7   49.75    9.22
   7  14  -7   59.96   11.61
  -7  14   6   87.55   13.15
   7  14  -6  111.18   13.72
   7  14  -6   78.93   13.50
   7  14  -6   90.28   13.22
  -7  14   5    4.56    3.60
   7  14  -5    1.81    3.37
   7  14  -5   -4.90    2.92
  -7  14   5    4.47    4.35
  -7  14   4   41.75    8.49
   7  14  -4   32.49    8.08
   7  14  -4   35.97   10.18
  -7  14   4   39.07    9.29
  -7  14   3   -1.42    4.77
   7  14  -3    2.07    2.19
  -7  14   3    1.91    2.49
   7  14  -3    5.31    5.29
  -7  14   3    2.61    2.76
  -7  14   2   61.24   11.70
   7  14  -2   55.20   10.80
   7  14  -2   71.79   12.75
  -7  14   2   52.66    9.82
   7  14  -2   46.82   11.07
  -7  14   2   52.52   10.10
  -7  14   1   22.74    6.38
   7  14  -1   23.82    6.73
  -7  14   1   28.88    7.61
   7  14  -1   29.29    8.92
   7  14  -1   23.47    8.19
  -7  14   1   33.17    8.94
   7  14   0  122.89   16.13
  -7  14   0  113.73   14.39
   7  14   0  116.97   16.37
   7  14   0  104.58   16.86
  -7  14   0  131.45   17.21
  -7  14   0  118.44   16.93
  -7  14  -1   35.66    9.67
   7  14   1   37.47    9.00
  -7  14  -1   37.62    8.45
   7  14   1   22.67    7.42
   7  14   1   27.85    9.19
  -7  14  -1   39.98   10.42
   7  14   2   74.95   12.50
  -7  14  -2   54.31    9.32
  -7  14  -2   73.03   12.25
   7  14   2   61.69   12.14
   7  14   2   52.22   11.12
  -7  14  -2   63.85   12.38
  -7  14  -3    3.73    4.81
  -7  14  -3    2.12    2.59
   7  14   3   -0.65    3.89
   7  14   3   -0.78    3.37
  -7  14  -3    4.61    3.18
  -7  14  -4   33.03    8.79
  -7  14  -4   47.71    9.92
   7  14   4   52.33    9.74
   7  14   4   46.53   10.60
  -7  14  -4   38.64    9.21
  -7  14  -5    0.66    4.18
   7  14   5    4.80    4.16
   7  14   5    0.75    3.35
  -7  14  -5    2.19    3.43
  -7  14  -5   -4.06    4.64
   7  14   6  132.00   14.98
   7  14   6   95.75   14.25
  -7  14  -6   97.62   14.33
  -7  14  -6  101.08   14.19
  -7  14  -7   47.18    9.45
   7  14   7   81.91   11.20
   7  14   7   81.30   12.86
  -7  14  -7   63.40   10.98
  -7  14  -7   53.09    9.45
  -7  14  -8   24.01    6.16
   7  14   8   48.90    8.27
   7  14   8   31.24    7.32
  -7  14  -8   28.33    7.19
  -7  14  -8   40.37    8.68
  -7  14  -9   -0.41    1.53
   7  14   9    0.39    1.18
   7  14   9   -1.10    2.71
  -7  14  -9    4.34    3.37
  -7  14  -9    7.04    3.69
   7  14  10   24.40    6.13
  -7  14 -10   22.14    4.88
  -7  14 -10   24.53    6.25
   7  14  11    0.32    1.49
  -7  14 -11    3.13    2.69
  -7  14 -11    1.29    2.64
   7  15  -9    3.19    1.81
  -7  15   9    4.47    2.92
   7  15  -8   23.13    5.10
   7  15  -8   28.25    6.24
   7  15  -7    6.84    2.61
  -7  15   6   49.53    8.98
   7  15  -6   42.45    8.13
   7  15  -5    8.03    3.44
  -7  15   5   11.52    3.54
   7  15  -5   13.62    4.67
  -7  15   4   -4.94    2.92
   7  15  -4   -5.56    3.99
   7  15  -4    6.13    2.52
  -7  15   4    4.52    2.80
   7  15  -4    5.05    2.72
  -7  15   3    2.93    2.27
   7  15  -3    8.67    3.16
  -7  15   3    6.98    4.26
   7  15  -3    0.54    2.16
   7  15  -3    5.92    3.42
  -7  15   3   -1.11    2.79
  -7  15   2   25.80    6.69
   7  15  -2   27.09    6.31
  -7  15   2   29.43    6.83
   7  15  -2   28.58    6.92
   7  15  -2   31.49    7.73
  -7  15   2   38.36    7.11
  -7  15   1   13.50    5.82
   7  15  -1   14.06    5.19
  -7  15   1   21.11    5.69
   7  15  -1   19.56    5.81
   7  15  -1   23.18    7.62
  -7  15   1   15.12    5.08
  -7  15   0   47.58    9.78
  -7  15   0   40.25    7.39
   7  15   0   50.85    9.36
   7  15   0   43.08    8.89
   7  15   0   41.50    9.11
  -7  15   0   50.15    9.21
  -7  15  -1   18.57    5.90
  -7  15  -1   23.37    5.91
   7  15   1   24.32    6.94
   7  15   1   14.16    5.18
  -7  15  -1   15.06    6.10
  -7  15  -2   30.95    6.07
   7  15   2   37.90    7.99
   7  15   2   29.63    8.09
  -7  15  -2   30.35    7.38
   7  15   3    2.64    2.13
   7  15   3    2.44    2.73
  -7  15  -4    2.61    2.50
   7  15   4   -0.50    2.50
   7  15   4    3.51    3.15
  -7  15  -4    3.25    3.13
  -7  15  -5    6.79    3.23
   7  15   5   18.77    5.62
  -7  15  -5    7.31    3.61
   7  15   5    8.95    3.44
  -7  15  -5    9.06    5.24
  -7  15  -6   38.43    7.50
   7  15   6   73.92    9.87
  -7  15  -6   55.16    9.32
   7  15   6   57.81    9.30
  -7  15  -7    5.25    2.75
   7  15   7   14.23    4.15
   7  15   7   17.27    4.95
  -7  15  -7   19.33    5.70
  -7  15  -7   13.21    4.07
  -7  15  -8   22.41    5.25
  -7  15  -8   36.11    7.06
   7  15   8   37.38    6.04
   7  15   8   25.64    5.66
  -7  15  -8   33.54    6.13
  -7  15  -9    4.13    2.24
   7  15   9    3.35    2.30
  -7  15  -9    8.50    3.30
   7  16  -7   46.21    6.72
   7  16  -6   -1.37    1.34
  -7  16   6    3.49    2.86
   7  16  -6    4.85    2.67
   7  16  -5   14.12    4.18
  -7  16   5   15.49    4.48
   7  16  -5    9.13    3.74
   7  16  -4    5.78    3.66
  -7  16   4    4.35    2.67
   7  16  -4    0.41    2.24
  -7  16   3    7.57    3.15
   7  16  -3    6.03    2.28
  -7  16   3    3.58    2.34
   7  16  -3    7.59    2.39
   7  16  -3    3.76    3.41
  -7  16   2    4.79    3.28
   7  16  -2    2.65    1.78
  -7  16   2    2.10    2.05
   7  16  -2    8.41    3.55
   7  16  -2    1.24    1.66
  -7  16   2    2.43    1.66
  -7  16   1   54.15    8.24
   7  16  -1   70.31    9.88
  -7  16   1   57.94    7.80
   7  16  -1   72.46    9.60
   7  16  -1   49.81    8.22
  -7  16   1   60.83    8.38
  -7  16   0    2.95    2.97
  -7  16   0    4.78    2.60
   7  16   0    6.19    2.73
   7  16   0    3.58    2.72
  -7  16   0    0.79    2.18
  -7  16  -1   53.00    8.60
   7  16   1   78.96   10.10
  -7  16  -1   52.81    6.89
   7  16   1   60.44    8.94
  -7  16  -1   58.54    8.37
  -7  16  -2    2.07    2.38
   7  16   2   -0.42    2.31
   7  16   2   -2.69    2.64
   7  16   3    8.35    3.58
   7  16   3    6.90    3.47
  -7  16  -3    1.66    2.60
  -7  16  -4    8.16    3.31
   7  16   4    2.95    2.18
   7  16   4    5.78    2.96
  -7  16  -4    7.46    3.18
  -7  16  -5    2.74    2.10
   7  16   5    4.28    2.28
  -7  16  -5    4.36    1.85
  -7  16  -6    1.56    1.92
   7  16   6    1.39    1.01
   7  16   6    1.45    1.73
   7  16   7   59.73    7.46
  -7  17   2    9.35    2.47
   7  17  -2    9.09    2.96
   7  17  -2    8.27    2.61
   7  17  -1    9.88    3.46
   7  17  -1   11.31    3.01
  -7  17   1    8.34    2.34
  -7  17   1    8.97    2.77
   7  17   0   48.73    6.60
  -7  17   0   33.41    4.40
   7  17   0   39.42    6.17
  -7  17   0   41.57    5.90
   7  17   1   14.22    3.82
   7  17   1   12.02    3.31
  -7  17  -1    9.42    2.86
   7  17   2   12.02    3.26
   7  17   2    8.25    2.54
  -7  17  -2   10.81    3.41
   8   0 -18    0.33    1.78
   8   0 -18    3.55    3.12
   8   0 -17    4.98    2.87
   8   0 -17    4.87    3.59
   8   0 -16   -0.60    3.02
   8   0 -16   -5.75    4.68
   8   0 -15   11.75    5.50
   8   0 -15    2.79    2.73
   8   0 -14   46.20   12.18
   8   0 -14   51.13   13.42
   8   0 -13    6.95    5.29
   8   0 -13    2.36    5.71
   8   0 -12   10.67    7.39
   8   0 -12    7.85    5.19
   8   0 -11    1.58    7.65
   8   0 -11   -6.80    9.51
   8   0 -10   15.67    8.60
   8   0 -10    2.71    9.19
   8   0  -9    3.96    6.04
   8   0  -9    6.07    7.67
  -8   0   9    8.76    9.70
   8   0  -9    8.33    5.80
   8   0  -8   30.71   12.82
   8   0  -8   25.54    8.59
  -8   0   8   38.87   14.26
   8   0  -8   27.93   10.35
   8   0  -7    3.71    7.52
  -8   0   7   10.52    9.75
   8   0  -7   -5.08    6.11
   8   0  -6  683.09   51.45
  -8   0   6  751.88   58.26
   8   0  -6  646.63   50.62
   8   0  -5   22.59    8.46
  -8   0   5   24.25    9.00
   8   0  -5   40.19   11.32
   8   0  -4  715.12   52.17
   8   0  -4  814.85   56.13
  -8   0   4  767.93   55.74
   8   0  -3   24.62    9.81
  -8   0   3   32.41   10.37
   8   0  -3   37.78   11.29
   8   0  -2  350.74   35.57
  -8   0   2  379.63   36.93
   8   0  -1   -3.81    8.75
  -8   0   1    2.43    4.85
  -8   0   1    6.32    8.79
   8   0   0   54.58   14.82
  -8   0   0   49.06   13.25
  -8   0   0   86.07   17.19
   8   0   1   -1.49    7.30
  -8   0  -1    3.78    5.76
  -8   0  -1    1.32    9.92
   8   0   2  413.73   44.52
  -8   0  -2  385.89   40.20
  -8   0  -2  370.12   37.72
   8   0   3   46.97   15.33
  -8   0  -3   39.89   12.68
  -8   0  -3   44.57   12.79
   8   0   4  827.61   65.13
  -8   0  -4  830.49   61.36
  -8   0  -4  772.09   57.38
   8   0   5   29.14   13.20
  -8   0  -5   21.62   10.23
  -8   0  -5   24.50    8.96
   8   0   6  679.96   58.84
  -8   0  -6  757.33   60.83
  -8   0  -6  722.77   57.01
   8   0   7   -3.24    9.22
  -8   0  -7    2.89    4.62
  -8   0  -7   -1.52    7.41
   8   0   8   13.09    9.95
  -8   0  -8   33.11   12.00
  -8   0  -8   31.23   12.71
   8   0   9   -1.67    4.79
  -8   0  -9    4.86    7.07
   8   0  10    8.53    7.63
   8   0  11    1.73    7.92
   8   0  12   15.38    8.22
   8   0  13    6.34    7.50
   8   0  14   62.07   17.02
   8   0  15    2.08    3.42
   8   0  16   -1.57    4.32
   8   0  17    6.27    4.31
   8   0  18    1.61    2.06
   8  -1 -18    2.59    1.90
   8  -1 -18    1.97    2.70
   8  -1 -17    6.62    2.50
   8  -1 -17    2.16    1.75
   8  -1 -16    7.57    4.00
   8  -1 -16    5.75    3.01
   8  -1 -15   34.37   10.29
   8  -1 -15   41.00    9.86
   8  -1 -14    2.77    2.98
   8  -1 -14    5.81    3.84
   8  -1 -13   13.88    9.40
   8  -1 -13   27.36    9.42
   8  -1 -12   50.32   15.64
   8  -1 -12   50.45   14.18
   8  -1 -11   17.36   12.24
   8  -1 -11   13.04    4.54
   8  -1 -10    1.56    7.51
   8  -1 -10   -1.33    4.46
   8  -1  -9    9.06    8.54
   8  -1  -9    7.54    7.36
  -8  -1   9   16.12    9.98
   8  -1  -9   15.17    9.14
   8  -1  -8  245.29   30.62
   8  -1  -8  185.05   28.75
  -8  -1   8  207.53   32.86
   8  -1  -8  164.37   25.66
   8  -1  -7  356.52   36.13
  -8  -1   7  421.08   44.63
   8  -1  -7  380.14   37.45
   8  -1  -6   22.56   10.00
  -8  -1   6   39.85   10.75
   8  -1  -6   31.90   11.31
   8  -1  -5    8.59    6.92
  -8  -1   5    5.33    4.97
   8  -1  -5   11.79    8.26
   8  -1  -4  337.06   34.92
   8  -1  -4  399.51   37.50
  -8  -1   4  378.59   38.99
   8  -1  -3   10.29    8.45
  -8  -1   3   13.57    8.16
   8  -1  -3    1.21    4.11
   8  -1  -2   78.89   16.77
  -8  -1   2  105.63   18.58
   8  -1  -1  336.18   35.23
  -8  -1   1  362.37   36.42
  -8  -1   1  344.63   34.59
   8  -1   0  284.61   33.78
  -8   1   0  373.49   53.98
  -8  -1   0  365.18   36.37
  -8  -1   0  297.89   32.69
   8  -1   1  358.97   39.74
  -8  -1  -1  406.30   39.60
  -8  -1  -1  374.01   36.73
  -8   1  -1  498.96   62.35
  -8  -1  -2  128.38   21.56
  -8  -1  -2   97.08   19.95
   8  -1   2  106.66   21.84
  -8   1  -2  126.46   32.80
  -8  -1  -3   13.31    8.07
  -8  -1  -3    9.77    8.85
   8  -1   3    4.73    4.87
  -8   1  -3   29.06   13.30
   8  -1   4  421.90   45.96
  -8   1  -4  521.17   63.45
  -8  -1  -4  458.29   45.04
  -8  -1  -4  388.22   40.14
   8  -1   5    3.18    7.17
  -8  -1  -5   -1.34    5.48
  -8  -1  -5   14.34    8.52
   8  -1   6   22.29   13.16
  -8  -1  -6   27.02   11.50
  -8  -1  -6   28.69   15.39
   8  -1   7  411.44   44.99
  -8  -1  -7  430.98   44.89
  -8  -1  -7  402.05   41.41
   8  -1   8  176.87   29.98
  -8  -1  -8  190.36   30.62
  -8  -1  -8  212.19   30.90
   8  -1   9   11.44    9.53
  -8  -1  -9    3.11    7.96
   8  -1  10   -1.66    8.88
   8  -1  11   15.08   10.85
   8  -1  12   50.99   17.85
   8  -1  13   15.44   10.78
   8  -1  14    9.27    7.16
   8  -1  15   45.01   11.77
   8  -1  16    4.75    4.14
   8  -1  17    6.30    4.15
   8  -1  18    1.20    1.58
   8  -2 -18   -2.79    2.41
   8   2 -18    0.59    1.63
   8  -2 -18   -1.54    2.23
   8   2 -18    2.12    2.00
   8  -2 -17    3.18    2.51
   8   2 -17    1.46    3.28
   8  -2 -17    7.62    3.39
   8   2 -17   11.07    4.00
   8  -2 -16    7.76    4.35
   8   2 -16   13.11    4.87
   8  -2 -16    5.65    2.32
   8   2 -16   12.32    5.54
   8  -2 -15    4.93    2.33
   8   2 -15    3.54    3.16
   8  -2 -15    6.40    4.84
   8   2 -15    8.40    5.42
   8  -2 -14  152.32   20.25
   8   2 -14  125.87   18.29
   8   2 -14  123.44   20.35
   8  -2 -14  119.40   20.27
   8  -2 -13   59.39   15.92
   8   2 -13   57.20   16.14
   8  -2 -13   66.29   14.06
   8   2 -13   41.43   11.48
   8  -2 -12    6.14    5.00
   8   2 -12    5.67    7.65
   8  -2 -12   10.29    7.77
   8   2 -12   17.23    9.35
   8  -2 -11   23.93   10.75
   8   2 -11   -2.96    5.15
   8  -2 -11   18.27    8.18
   8   2 -11   20.45    9.67
   8  -2 -10   -1.24    4.63
   8   2 -10    2.41    5.46
   8  -2 -10   -6.32    5.81
   8   2 -10    4.43    5.36
   8  -2  -9   71.27   16.13
   8   2  -9   86.96   17.97
   8  -2  -9   98.88   21.25
   8   2  -9  104.58   20.52
  -8  -2   9  140.41   28.31
  -8   2   9   80.73   18.13
   8  -2  -9   86.30   19.14
   8   2  -9   69.70   17.56
   8  -2  -8  684.33   55.55
   8   2  -8  808.57   58.51
   8  -2  -8  711.30   52.02
   8   2  -8  652.51   48.94
   8   2  -8  694.72   50.91
  -8  -2   8  746.20   63.67
  -8   2   8  709.39   54.46
   8  -2  -8  675.28   53.17
   8   2  -8  635.02   50.32
   8  -2  -7   49.56   12.81
   8   2  -7   28.95    9.49
  -8  -2   7   60.04   16.33
  -8   2   7   72.98   17.13
   8  -2  -7   46.41   13.23
   8   2  -7   76.84   16.81
   8   2  -6   65.04   14.67
   8  -2  -6   64.46   15.44
  -8  -2   6   99.50   20.58
  -8   2   6   94.23   19.01
   8  -2  -6   72.92   15.79
   8   2  -6   71.23   15.99
   8  -2  -5  124.06   21.07
   8   2  -5  106.53   18.75
  -8  -2   5  158.93   25.67
  -8   2   5  120.64   21.01
   8   2  -5  124.16   20.64
   8  -2  -5  104.64   18.98
  -8  -2   4   91.20   18.88
  -8   2   4   85.28   17.37
   8  -2  -4   82.37   17.32
   8   2  -4   97.50   18.14
   8   2  -3  172.79   23.92
   8  -2  -3  202.01   26.23
   8  -2  -3  224.71   27.92
   8   2  -3  260.77   29.71
  -8  -2   3  198.05   26.93
  -8   2   3  241.33   28.06
   8   2  -2  108.17   18.70
   8  -2  -2  103.17   18.78
  -8  -2   2   97.57   18.18
  -8   2   2  104.87   18.62
  -8   2   2  123.62   20.78
  -8  -2   2   95.03   18.69
   8   2  -1  259.03   29.81
   8  -2  -1  263.10   30.71
  -8  -2   1  318.13   34.55
  -8   2   1  298.19   31.82
  -8  -2   1  300.17   32.30
  -8   2   1  309.52   31.67
   8   2   0 1637.81   83.80
   8  -2   0 1645.75   86.37
  -8   2   0 1741.81  104.69
  -8  -2   0 1806.73   88.43
  -8   2   0 1674.46   83.27
  -8  -2   0 1736.37   85.00
  -8   2   0 1595.97   80.24
   8   2   1  275.13   32.36
   8  -2   1  274.16   34.16
  -8   2  -1  294.85   32.54
  -8  -2  -1  341.71   35.15
  -8   2  -1  293.48   31.06
  -8  -2  -1  378.03   37.85
  -8   2  -1  347.58   45.77
  -8  -2  -2  105.61   19.83
  -8   2  -2   94.65   18.30
  -8  -2  -2  105.65   20.37
  -8   2  -2  111.33   19.21
   8   2   2   92.76   19.40
   8  -2   2  100.52   21.39
  -8   2  -2  110.88   24.42
   8   2   3  212.43   29.70
   8  -2   3  238.18   33.17
  -8   2  -3  230.60   28.29
  -8  -2  -3  246.75   32.28
  -8   2  -3  261.70   30.95
  -8  -2  -3  263.79   32.66
  -8   2  -3  220.48   36.53
  -8  -2  -4   81.97   18.18
  -8   2  -4   65.73   15.96
  -8  -2  -4   87.31   19.42
  -8   2  -4  102.35   18.58
   8   2   4   87.17   19.18
   8  -2   4   97.81   20.83
  -8   2  -4   97.41   24.43
  -8  -2  -5  151.59   25.60
  -8  -2  -5  129.15   22.77
  -8   2  -5  148.51   23.83
  -8   2  -5  120.27   21.48
   8   2   5  137.39   24.65
   8  -2   5  149.65   27.69
  -8   2  -5  146.25   29.04
  -8  -2  -6   88.32   18.91
  -8   2  -6   67.92   16.18
  -8  -2  -6  101.88   21.64
  -8   2  -6  100.63   20.09
   8   2   6   72.98   18.84
   8  -2   6   89.47   20.45
  -8   2  -6   94.03   22.35
  -8  -2  -7   48.13   12.83
  -8   2  -7   73.02   18.59
  -8  -2  -7   61.65   17.28
  -8   2  -7   60.04   17.09
   8   2   7   47.98   14.30
   8  -2   7   48.71   14.15
  -8   2  -7   63.38   21.19
   8   2   8  636.67   54.43
   8  -2   8  615.83   55.72
  -8  -2  -8  634.72   53.94
  -8   2  -8  722.84   56.81
  -8   2  -8  723.81   64.77
  -8   2  -9   88.46   21.17
  -8  -2  -9   99.18   21.77
   8   2   9  104.03   20.81
   8  -2   9  117.31   23.33
  -8   2  -9   76.49   20.22
   8   2  10   -1.51    4.52
   8  -2  10    6.41    5.31
  -8   2 -10   -5.77    7.55
   8   2  11   15.39   10.67
   8  -2  11   23.99   11.14
  -8   2 -11   11.20    7.51
   8   2  12   17.61    9.87
   8  -2  12   14.03    7.59
   8   2  13   65.55   16.16
   8  -2  13   50.97   15.33
   8   2  14  154.02   23.31
   8  -2  14  184.10   26.71
   8   2  15    7.07    6.28
   8  -2  15   12.29    6.65
   8   2  16   12.72    5.95
   8  -2  16   18.51    7.05
   8   2  17   10.30    4.05
   8  -2  17    2.23    2.88
   8   2  18   -0.69    1.87
   8  -2  18   -0.77    1.99
   8  -3 -18    2.53    1.71
   8   3 -18    0.96    1.41
   8   3 -17    7.14    3.89
   8  -3 -17    3.50    2.10
   8   3 -17    8.69    3.17
   8  -3 -17    4.53    3.15
   8  -3 -16    4.71    3.67
   8   3 -16    4.77    4.38
   8  -3 -16    9.69    4.41
   8   3 -16    8.28    3.27
   8  -3 -15   59.33   11.18
   8   3 -15   58.23   10.59
   8  -3 -15   76.26   14.61
   8   3 -15   36.47    9.25
   8  -3 -14   12.65    5.72
   8   3 -14   16.62    7.03
   8  -3 -14    9.99    5.17
   8   3 -14   14.70    7.12
   8  -3 -13  205.01   24.18
   8  -3 -13  233.43   30.63
   8   3 -13  169.26   25.04
   8   3 -13  235.95   26.16
   8  -3 -12   24.11    6.14
   8   3 -12   22.13    8.72
   8  -3 -12   41.45   14.13
   8   3 -12   35.30   12.31
   8  -3 -11   14.62    8.51
   8   3 -11    3.34    3.63
   8  -3 -11    9.67    8.57
   8   3 -11    4.31    4.25
   8  -3 -10    9.24    6.16
   8   3 -10    7.87    5.12
   8   3 -10    5.77    4.70
   8  -3  -9  690.78   57.43
   8   3  -9  567.41   49.35
   8  -3  -9  606.83   46.67
   8   3  -9  543.58   43.56
   8   3  -9  603.05   47.29
  -8  -3   9  613.75   58.48
  -8   3   9  571.60   46.93
   8  -3  -9  505.71   47.67
   8   3  -9  469.35   43.73
   8  -3  -8   21.46    9.25
   8   3  -8   22.67    7.42
   8  -3  -8   39.73   13.63
   8   3  -8   53.90   14.74
   8   3  -8   51.92   14.46
  -8  -3   8   19.93    7.88
  -8   3   8   25.42   11.36
   8  -3  -8   37.54   13.16
   8   3  -8   46.84   14.10
   8  -3  -7  625.37   46.89
   8   3  -7  630.93   46.39
   8   3  -7  628.84   49.95
  -8  -3   7  657.42   55.21
  -8   3   7  626.15   48.55
   8  -3  -7  651.68   50.53
   8   3  -7  662.75   49.52
  -8  -3   6   19.12   10.55
  -8   3   6   23.42    9.42
   8   3  -6   27.38    9.46
   8  -3  -6   28.30    9.34
   8  -3  -6   24.36   10.30
   8   3  -6   26.13    9.39
   8  -3  -5  459.21   39.62
   8   3  -5  466.33   39.17
  -8   3   5  427.64   38.49
  -8  -3   5  456.87   43.95
   8  -3  -5  436.27   39.96
   8   3  -5  397.21   36.91
   8  -3  -4   43.51   12.41
   8   3  -4   26.05   10.52
  -8  -3   4   33.45   11.36
  -8   3   4   20.60    6.56
   8  -3  -4   33.13   10.48
   8   3  -4   35.03   11.52
   8   3  -3  215.23   26.23
   8  -3  -3  216.86   27.48
   8  -3  -3  253.77   29.52
   8   3  -3  224.46   27.33
  -8  -3   3  246.80   29.69
  -8   3   3  224.77   27.15
   8   3  -2   34.90   11.15
   8  -3  -2   28.56   10.34
  -8  -3   2   29.56   10.22
  -8   3   2   23.78    9.14
  -8  -3   2   28.15    9.53
  -8   3   2   34.64   11.38
   8   3  -1 1246.28   70.28
   8  -3  -1 1343.53   74.78
  -8   3   1 1348.27   87.11
  -8  -3   1 1520.83   79.40
  -8   3   1 1527.21   76.81
  -8  -3   1 1525.41   77.99
  -8   3   1 1438.23   73.66
   8   3   0  431.96   39.24
   8  -3   0  475.43   42.70
  -8   3   0  505.91   51.74
  -8  -3   0  544.15   45.54
  -8   3   0  508.16   42.00
  -8  -3   0  531.65   43.68
  -8   3   0  512.21   41.28
   8   3   1 1399.45   77.10
   8  -3   1 1453.14   81.77
  -8  -3  -1 1632.76   84.14
  -8   3  -1 1454.94   76.06
  -8  -3  -1 1545.41   80.46
  -8   3  -1 1478.28   75.51
  -8   3  -1 1272.77   87.18
  -8  -3  -2   39.98   13.05
  -8   3  -2   31.53   11.17
  -8  -3  -2   34.88   13.33
  -8   3  -2   21.06    9.28
   8   3   2   44.08   14.31
   8  -3   2   35.33   13.20
  -8   3  -2   32.23   12.61
   8   3   3  243.67   31.60
   8  -3   3  276.49   35.15
  -8  -3  -3  270.92   33.69
  -8   3  -3  259.58   30.54
  -8  -3  -3  233.85   29.89
  -8   3  -3  219.69   27.40
  -8   3  -3  204.43   33.10
  -8  -3  -4   35.42   10.67
  -8   3  -4   45.09   12.94
  -8  -3  -4   29.57   11.07
  -8   3  -4   47.84   13.19
   8   3   4   23.61    8.92
   8  -3   4   24.05    7.74
  -8   3  -4   38.82   15.87
   8   3   5  425.81   42.79
   8  -3   5  479.97   47.52
  -8  -3  -5  539.04   47.45
  -8   3  -5  467.15   42.83
  -8  -3  -5  459.31   42.53
  -8   3  -5  448.02   40.41
  -8   3  -5  469.78   50.70
  -8  -3  -6   31.57   11.33
  -8   3  -6   30.95   11.78
  -8  -3  -6   32.01   11.72
  -8   3  -6   23.86   10.98
   8   3   6   21.01   12.05
   8  -3   6   16.68    9.98
  -8   3  -6   22.79   11.39
   8   3   7  612.53   51.26
   8  -3   7  668.38   56.60
  -8  -3  -7  698.61   55.78
  -8   3  -7  726.64   56.32
  -8  -3  -7  649.54   52.63
  -8   3  -7  608.55   50.12
  -8   3  -7  628.15   58.84
  -8  -3  -8   26.36   11.63
  -8   3  -8   19.12   10.74
   8   3   8   49.39   13.35
   8  -3   8   40.82   13.65
  -8   3  -8   33.33   13.25
   8   3   9  623.15   51.50
   8  -3   9  613.64   53.83
  -8  -3  -9  543.55   51.68
  -8   3  -9  546.96   52.14
  -8   3  -9  543.19   57.43
   8   3  10   12.61    7.67
   8  -3  10   15.06    9.20
  -8   3 -10    6.05    7.82
   8   3  11   18.16    9.92
   8  -3  11    7.46    6.39
  -8   3 -11   -8.15   10.80
   8   3  12   33.90   12.39
   8  -3  12   20.18   10.99
  -8   3 -12   -1.92   11.51
   8   3  13  259.69   30.80
   8  -3  13  258.26   33.25
  -8   3 -13  186.97   30.97
   8   3  14   16.87    7.72
   8  -3  14   20.04   10.05
  -8   3 -14    9.35    8.12
   8  -3  15  103.03   17.79
   8   3  15   66.45   12.81
   8   3  16    3.01    2.59
   8  -3  16   10.16    3.99
   8   3  17   11.44    4.16
   8  -3  17    4.16    3.43
   8   3  18    0.62    1.09
   8  -3  18   -0.71    1.40
   8  -4 -18   -0.64    1.54
   8   4 -18    0.83    1.28
   8  -4 -17    4.04    3.22
   8   4 -17    0.30    1.16
   8   4 -17    1.97    1.56
   8   4 -16   25.54    7.26
   8  -4 -16   27.61    6.23
   8  -4 -16   28.82    7.66
   8   4 -16   27.79    6.20
   8  -4 -15    6.22    4.81
   8   4 -15   10.32    5.64
   8  -4 -15    4.02    3.59
   8   4 -15    0.70    3.18
   8  -4 -14   91.01   13.66
   8   4 -14  103.07   14.50
   8  -4 -14   79.11   15.88
   8   4 -14   57.61   13.04
   8   4 -13   13.07    6.27
   8  -4 -13   18.91    7.83
   8   4 -13    9.02    4.48
   8  -4 -13   16.49    9.84
   8  -4 -12   64.05   17.49
   8   4 -12   42.14   13.65
   8  -4 -12   81.99   14.99
   8   4 -12   54.00   11.99
   8  -4 -11   14.38    9.97
   8   4 -11    4.13    4.36
   8  -4 -11    5.05    4.10
   8   4 -11    6.00    5.16
   8   4 -11    7.40    5.99
   8  -4 -10    8.42    7.40
   8   4 -10    4.09    5.08
   8  -4 -10   -1.61    7.95
   8   4 -10   15.42    8.77
   8   4 -10    9.25    7.10
   8  -4  -9   29.67   10.06
   8  -4  -9   57.95   18.45
   8   4  -9   30.23   12.43
   8   4  -9   29.56    8.89
   8   4  -9   24.75    8.90
   8  -4  -8  866.15   63.05
   8   4  -8  805.95   57.35
   8  -4  -8  729.62   49.70
   8   4  -8  707.68   47.85
   8   4  -8  802.85   57.05
  -8  -4   8  725.24   57.95
  -8   4   8  709.49   49.23
   8  -4  -8  664.35   53.76
   8   4  -8  664.65   50.66
   8  -4  -7   21.11    9.67
   8   4  -7   12.63    6.17
   8   4  -7   22.14   11.03
  -8  -4   7   12.00    9.27
  -8   4   7    7.27    5.74
   8  -4  -7    8.22    4.56
   8   4  -7   10.90    3.85
   8  -4  -7   15.31    7.48
   8   4  -7   17.23    8.27
   8  -4  -6  375.48   33.58
   8   4  -6  331.81   32.00
  -8  -4   6  393.22   40.00
  -8   4   6  330.97   32.77
   8  -4  -6  375.90   37.27
   8   4  -6  313.86   32.68
  -8  -4   5   -1.24    7.05
  -8   4   5   -4.14    7.42
   8   4  -5    3.04    3.85
   8  -4  -5    2.05    3.63
   8  -4  -5    1.19    5.45
   8   4  -5    1.08    4.60
   8  -4  -4  261.62   28.56
   8   4  -4  247.05   28.05
   8   4  -4  166.70   22.30
  -8  -4   4  237.80   29.43
  -8   4   4  250.00   28.35
   8  -4  -4  256.53   30.43
   8   4  -4  220.92   27.00
   8   4  -3   33.83    9.98
   8  -4  -3   24.10    9.59
   8   4  -3   20.33    7.28
  -8  -4   3   22.40    9.17
  -8   4   3   17.96    5.55
  -8   4   3   35.80    9.74
   8   4  -2  228.86   26.76
   8  -4  -2  251.62   28.88
  -8  -4   2  250.82   30.26
  -8   4   2  238.26   28.50
  -8  -4   2  227.70   28.35
  -8   4   2  229.23   27.72
   8   4  -1   62.93   14.21
   8  -4  -1   82.50   17.00
  -8   4   1   63.84   19.07
  -8  -4   1   73.07   16.46
  -8   4   1   69.59   13.86
  -8  -4   1   69.88   16.58
  -8   4   1   71.12   16.45
   8   4   0 1944.05   90.64
   8  -4   0 2107.00   97.30
  -8  -4   0 2486.49  106.01
  -8   4   0 2126.33   95.36
  -8  -4   0 2296.48  100.53
  -8   4   0 2253.41   95.48
  -8   4   0 1924.46  108.56
  -8  -4  -1   85.18   16.83
  -8   4  -1   49.61   13.66
  -8  -4  -1   73.80   18.12
  -8   4  -1   91.01   17.45
   8   4   1   57.09   13.38
   8  -4   1   57.23   14.26
  -8   4  -1   37.72   13.61
   8   4   2  219.10   28.71
   8  -4   2  264.77   32.80
  -8  -4  -2  270.45   33.03
  -8   4  -2  299.26   31.99
  -8  -4  -2  258.00   31.44
  -8   4  -2  246.23   28.62
  -8   4  -2  219.63   33.65
  -8  -4  -3   30.62   11.80
  -8   4  -3   38.56   11.57
  -8  -4  -3   40.06   14.05
  -8   4  -3   30.19   11.22
   8   4   3   28.36   10.73
   8  -4   3   28.39   11.85
  -8   4  -3   23.60   10.16
   8   4   4  270.12   31.61
   8  -4   4  251.21   33.76
  -8  -4  -4  298.91   34.66
  -8   4  -4  271.59   31.20
  -8  -4  -4  263.09   30.99
  -8   4  -4  263.28   29.52
  -8   4  -4  182.10   31.63
  -8  -4  -5    9.59    7.50
  -8   4  -5   -2.22    3.46
  -8  -4  -5    3.81    9.11
  -8   4  -5    4.71    5.79
   8   4   5    3.67    3.55
   8  -4   5    1.42    4.22
  -8   4  -5    3.27    4.89
   8   4   6  338.53   35.76
   8  -4   6  438.33   43.60
  -8  -4  -6  332.26   37.50
  -8   4  -6  384.04   38.53
  -8  -4  -6  337.98   36.10
  -8   4  -6  350.78   36.12
  -8   4  -6  308.32   39.78
  -8  -4  -7   17.93    7.65
  -8   4  -7   28.42   10.56
  -8  -4  -7    3.98    6.10
  -8   4  -7   20.46   10.55
   8   4   7   14.63    8.78
   8  -4   7   -1.41    4.91
  -8   4  -7   13.27    8.55
  -8   4  -7   -5.09    8.16
  -8   4  -7   13.17    9.91
   8   4   8  731.21   54.62
   8  -4   8  794.03   59.93
  -8  -4  -8  676.82   55.73
  -8   4  -8  656.33   54.14
  -8   4  -8  656.24   60.57
  -8   4  -8  675.48   62.83
   8   4   9   41.32   12.29
   8  -4   9   36.22   13.62
  -8   4  -9   26.50   12.49
  -8   4  -9   33.36   16.78
   8   4  10    6.31    7.95
   8  -4  10    2.74    8.30
  -8   4 -10    2.01    7.49
  -8   4 -10    5.24    7.21
   8   4  11    9.61    6.14
   8  -4  11    8.06    5.24
  -8   4 -11    6.15    9.73
   8   4  12   39.25   11.54
   8  -4  12   65.44   15.61
  -8   4 -12   35.08   13.59
   8   4  13    9.06    4.18
   8  -4  13   18.90    8.89
  -8   4 -13   -1.70    5.14
   8   4  14   96.59   15.74
   8  -4  14  106.60   18.54
  -8   4 -14   97.54   20.53
   8   4  15   11.61    3.54
   8  -4  15   11.12    5.38
  -8   4 -15    2.06    3.18
   8   4  16   21.35    5.94
   8  -4  16   38.87    8.56
  -8   4 -16   28.21    8.28
   8   4  17    5.30    3.14
   8  -4  17    0.46    2.94
   8   4  18    1.32    1.19
   8  -4  18   -2.73    1.61
   8  -5 -17    1.89    2.82
   8   5 -17    4.89    2.55
   8   5 -17    6.06    2.88
   8  -5 -16    6.27    4.00
   8   5 -16    0.90    1.75
   8  -5 -16    2.57    1.62
   8   5 -16    1.99    1.22
   8  -5 -15   27.69    8.09
   8   5 -15   19.56    6.00
   8  -5 -15   32.56    6.75
   8   5 -15   21.00    5.39
   8  -5 -14    7.02    4.00
   8   5 -14    7.21    3.34
   8  -5 -14    4.47    3.13
   8   5 -14    6.11    4.22
   8  -5 -13    2.79    2.93
   8   5 -13    3.37    3.61
   8  -5 -13   -1.12    2.91
   8   5 -13   -0.95    3.02
   8  -5 -12   20.24    9.63
   8   5 -12    4.56    5.87
   8  -5 -12    9.60    5.82
   8   5 -12    6.22    4.12
   8   5 -12    3.68    3.61
   8   5 -11    0.85    3.87
   8  -5 -11    4.54    3.87
   8   5 -11    3.83    7.99
   8  -5 -11   -1.76    4.34
   8   5 -11    4.30    3.46
   8  -5 -10    9.29    5.91
   8  -5 -10    6.27    7.48
   8   5 -10   14.64    7.48
   8   5 -10    3.56    4.14
   8   5 -10    2.36    5.09
   8  -5  -9   26.23   11.33
   8   5  -9   26.47   10.89
   8  -5  -9   10.50    5.79
   8   5  -9    6.33    6.09
   8   5  -9   11.34    5.38
   8  -5  -8   70.67   19.28
   8   5  -8  106.02   20.47
   8   5  -8   85.81   18.37
  -8   5   8   57.73   13.29
   8  -5  -8   68.95   13.28
   8   5  -8   59.78   12.79
   8  -5  -8   48.78   14.34
   8   5  -8   69.60   15.85
   8  -5  -7  380.40   39.22
   8   5  -7  316.82   34.54
   8  -5  -7  288.06   28.74
   8   5  -7  282.22   27.98
   8   5  -7  319.19   35.84
  -8  -5   7  342.06   35.92
  -8   5   7  312.91   30.14
   8  -5  -7  290.83   32.98
   8   5  -7  260.95   30.06
   8   5  -6   60.85   13.01
   8   5  -6   59.84   14.42
  -8  -5   6   70.93   15.59
  -8   5   6   65.84   14.29
   8  -5  -6   76.54   15.64
   8   5  -6   47.82   11.25
   8  -5  -6   58.49   14.40
   8   5  -6   46.78   12.35
   8   5  -5    7.43    4.69
  -8  -5   5    7.02    4.59
  -8   5   5    4.92    4.28
   8  -5  -5    3.91    4.32
   8   5  -5    4.74    4.57
   8  -5  -5   -1.15    3.33
   8   5  -5    1.03    4.71
   8   5  -4  139.95   20.25
   8   5  -4  133.96   20.99
  -8  -5   4  167.21   24.11
  -8   5   4  209.74   25.13
   8  -5  -4  198.19   25.22
   8   5  -4  162.63   22.09
   8   5  -3   77.74   15.08
   8   5  -3   94.30   16.75
  -8  -5   3  100.36   18.06
  -8   5   3   69.37   15.18
  -8  -5   3   81.58   16.98
  -8   5   3  104.82   18.40
   8   5  -2   61.36   13.75
   8  -5  -2   43.39   11.77
   8   5  -2   54.27   13.11
  -8  -5   2   58.02   14.63
  -8   5   2   44.97   11.50
  -8  -5   2   56.22   14.23
  -8   5   2   62.36   14.31
   8   5  -1  219.88   25.35
   8  -5  -1  212.57   26.77
  -8   5   1  231.85   34.80
  -8  -5   1  286.43   31.83
  -8   5   1  255.89   29.12
  -8  -5   1  275.28   30.50
  -8   5   1  265.54   28.99
   8   5   0   62.13   14.04
   8  -5   0   51.25   13.98
  -8   5   0   54.22   17.55
  -8  -5   0   70.06   15.21
  -8   5   0   62.45   12.75
  -8  -5   0   62.33   15.05
  -8   5   0   66.55   14.45
   8   5   1  232.78   26.81
   8  -5   1  259.24   30.30
  -8  -5  -1  297.75   33.39
  -8   5  -1  270.36   29.93
  -8  -5  -1  284.61   31.61
  -8   5  -1  255.53   28.62
  -8   5  -1  191.39   31.91
  -8  -5  -2   56.71   13.94
  -8   5  -2   60.39   13.07
  -8  -5  -2   60.58   15.90
  -8   5  -2   55.20   14.19
   8   5   2   49.02   12.88
   8  -5   2   82.72   17.77
  -8   5  -2   47.74   15.02
  -8  -5  -3   88.12   16.94
  -8   5  -3   97.31   17.71
  -8  -5  -3  112.44   19.99
  -8   5  -3   94.87   18.09
   8   5   3   75.97   15.92
   8  -5   3  112.92   21.14
  -8   5  -3   52.88   16.34
  -8  -5  -4  182.46   25.75
  -8   5  -4  164.91   24.20
  -8  -5  -4  194.84   25.42
  -8   5  -4  164.55   22.62
   8   5   4  197.73   26.84
   8  -5   4  196.72   28.49
  -8   5  -4  158.97   27.86
  -8  -5  -5   15.97    7.90
  -8   5  -5   16.27    7.30
  -8  -5  -5   15.60    8.33
  -8   5  -5    4.56    6.54
   8   5   5   12.32    6.89
   8  -5   5    7.79    8.28
  -8   5  -5    1.58    9.14
  -8  -5  -6   59.36   13.98
  -8   5  -6   38.63   11.56
  -8  -5  -6   54.21   15.07
  -8   5  -6   69.55   16.65
   8   5   6   70.27   15.29
   8  -5   6   88.84   19.49
  -8   5  -6   79.55   22.89
  -8   5  -6   72.36   18.95
  -8   5  -6   43.45   14.96
   8   5   7  313.67   32.78
   8  -5   7  330.07   35.79
  -8  -5  -7  282.23   33.48
  -8   5  -7  307.23   34.27
  -8   5  -7  264.23   36.40
  -8   5  -7  384.48   46.92
  -8   5  -7  285.22   39.23
  -8  -5  -8   71.02   17.05
  -8   5  -8   65.92   15.88
   8   5   8   74.16   15.01
   8  -5   8   75.64   17.30
  -8   5  -8   72.77   19.88
  -8   5  -8   58.34   18.70
  -8   5  -8   60.35   18.44
   8   5   9   15.60    7.15
   8  -5   9   22.39   10.13
  -8   5  -9    5.22    5.42
  -8   5  -9   15.56    9.47
   8   5  10    4.21    4.49
   8  -5  10    4.86    4.56
  -8   5 -10   12.71   10.87
  -8   5 -10   -9.45    9.08
   8   5  11    5.99    6.14
   8  -5  11    2.35    3.80
  -8   5 -11    7.33    9.68
   8   5  12   12.03    4.29
   8  -5  12    3.33    5.14
  -8   5 -12   14.13   10.65
  -8   5 -12   24.44   10.91
   8   5  13    4.13    4.08
   8  -5  13    1.01    3.74
  -8   5 -13   -3.13    8.83
   8   5  14    2.09    2.85
   8  -5  14    3.50    4.31
  -8   5 -14   10.21    5.74
   8   5  15   35.26    7.80
   8  -5  15   30.81    8.01
  -8   5 -15   48.66   12.58
   8   5  16    2.97    2.36
  -8   5 -16    4.19    2.51
   8   5  17    2.44    1.77
   8  -5  17    1.50    1.95
  -8   5 -17    1.86    2.41
   8   6 -17    2.17    1.62
   8   6 -17    8.59    3.88
   8   6 -17    4.46    2.04
   8  -6 -16    3.99    2.00
   8   6 -16   -0.49    0.88
   8  -6 -16   -1.62    2.56
   8   6 -16    2.09    2.54
   8   6 -16    1.11    1.62
   8   6 -16   -0.46    1.74
   8   6 -15   -0.47    2.72
   8  -6 -15    6.02    2.65
   8  -6 -15    6.42    2.42
   8   6 -15    1.65    1.20
   8  -6 -14   14.29    6.33
   8   6 -14    8.60    4.45
   8  -6 -14    6.68    3.59
   8   6 -14    8.88    3.81
   8  -6 -13    6.37    5.03
   8   6 -13   -3.12    5.73
   8   6 -13   -6.33    4.85
   8   6 -13    6.74    2.98
   8  -6 -13    7.50    3.68
   8  -6 -12   33.63   10.91
   8   6 -12   23.93   10.08
   8   6 -12   33.39    9.13
   8  -6 -12   44.32    9.08
   8   6 -12   39.60    8.43
   8  -6 -11   -1.32    6.52
   8   6 -11    1.12    4.90
   8   6 -11   -2.14    3.45
   8  -6 -11   -0.75    3.09
   8   6 -11    4.09    2.06
   8  -6 -10   34.31   13.58
   8   6 -10   10.93    6.99
   8   6 -10   39.17   11.79
   8  -6 -10   21.04    7.46
   8   6 -10   32.31    8.49
   8  -6  -9    7.24    8.12
   8   6  -9    1.24    7.03
   8   6  -9    6.32    7.62
   8   6  -9    0.82    5.17
   8  -6  -9   12.69    6.99
   8   6  -9    8.41    4.37
   8  -6  -8   12.66    8.23
   8   6  -8   16.99    8.48
   8   6  -8   26.28   12.14
   8   6  -8   20.71    7.45
   8  -6  -8   26.97    9.06
   8   6  -8   18.81    6.17
   8  -6  -7   14.64    7.92
   8   6  -7   37.13   11.33
   8   6  -7   32.25   11.45
   8   6  -7   24.08    8.54
  -8  -6   7   24.99    8.09
  -8   6   7   27.82    8.65
   8  -6  -7   23.02    8.35
   8   6  -7   31.27    9.34
   8   6  -7   25.79    9.62
   8   6  -6   42.08   11.12
   8  -6  -6   85.35   18.09
   8   6  -6   36.18   10.77
   8   6  -6   36.63   10.51
  -8  -6   6   43.47   12.29
  -8   6   6   55.26   12.64
   8  -6  -6   47.26   11.65
   8   6  -6   48.76   11.04
   8  -6  -6   54.21   13.85
   8   6  -6   34.70   10.52
   8   6  -5   21.29   11.31
   8   6  -5   19.80    8.69
   8   6  -5    6.94    6.37
  -8  -6   5   29.11    9.92
  -8   6   5   21.93    6.25
   8  -6  -5   30.45   10.06
   8   6  -5   31.09    9.46
   8   6  -4  746.66   49.53
   8   6  -4  806.05   55.63
  -8  -6   4  978.51   59.75
  -8   6   4  889.80   53.27
  -8  -6   4  982.79   59.24
  -8   6   4  907.41   53.26
   8  -6  -4  845.63   54.14
   8   6  -4  747.41   49.04
   8   6  -3   13.24    6.31
   8   6  -3   22.54    9.01
   8  -6  -3   17.91    6.80
   8   6  -3   14.31    6.80
  -8  -6   3   26.86    9.25
  -8   6   3   36.22   10.85
  -8  -6   3   13.73    7.61
  -8   6   3   23.94    7.95
   8   6  -2    9.54    6.54
   8   6  -2    7.12    5.41
  -8  -6   2    8.00    5.69
  -8   6   2    5.01    5.19
  -8  -6   2    7.05    3.41
  -8   6   2   23.66    7.65
   8   6  -1   18.33    6.99
   8  -6  -1   19.69    8.66
  -8  -6   1   43.43   10.99
  -8   6   1   12.34    6.86
  -8  -6   1   19.98    9.67
  -8   6   1   22.10    8.26
  -8   6   1   12.77    7.90
   8   6  -1   21.28    8.56
  -8  -6   0   42.25   11.81
  -8   6   0   32.28   10.50
  -8  -6   0   37.38   11.46
  -8   6   0   41.64   12.02
   8   6   0   23.10    7.56
   8  -6   0   46.22   11.28
  -8   6   0   34.25   12.79
  -8  -6  -1   42.75   12.05
  -8   6  -1   29.99   10.31
  -8  -6  -1   25.56   10.68
  -8   6  -1   31.18   11.52
   8   6   1   19.12    6.49
   8  -6   1   27.81    9.55
  -8   6  -1   19.37   10.66
  -8  -6  -2   22.76    9.26
  -8   6  -2    4.03    4.85
  -8  -6  -2   17.00    7.16
  -8   6  -2   15.87    7.13
   8   6   2    0.94    6.20
   8  -6   2    7.44    3.89
  -8   6  -2   11.74   11.62
  -8  -6  -3   31.67   11.28
  -8   6  -3    8.93    5.49
  -8  -6  -3   23.39    7.41
  -8   6  -3   21.97    8.82
   8   6   3   11.59    4.89
   8  -6   3   24.23    8.78
  -8   6  -3   19.20    8.35
   8   6   4  877.98   53.97
   8  -6   4  942.03   59.98
  -8  -6  -4  925.76   58.37
  -8   6  -4  908.39   56.02
  -8  -6  -4  816.80   53.94
  -8   6  -4  872.26   53.50
  -8   6  -4  747.78   61.68
  -8  -6  -5   18.37    8.89
  -8   6  -5   25.97    9.22
  -8  -6  -5   19.08    8.52
  -8   6  -5   26.96    8.62
   8   6   5   29.08    9.08
   8  -6   5   27.75    9.97
  -8   6  -5   49.29   16.98
  -8   6  -5   13.42    4.35
  -8  -6  -6   54.33   13.65
  -8   6  -6   64.82   15.16
  -8  -6  -6   61.66   15.29
   8  -6   6   46.79   12.97
   8   6   6   46.32   11.71
  -8   6  -6   23.63   10.89
  -8   6  -6   40.93   16.99
  -8   6  -6   37.24   12.23
  -8  -6  -7   35.56   10.81
  -8   6  -7   32.75   10.32
   8   6   7   16.61    7.27
   8  -6   7   14.68    8.01
  -8   6  -7    9.03    9.70
  -8   6  -7   16.37    9.03
  -8   6  -7   18.80    9.61
   8  -6   8   14.38    7.73
   8   6   8   21.19    8.53
  -8   6  -8   16.80    7.73
  -8   6  -8   25.54   11.89
  -8   6  -8   18.16    9.18
   8  -6   9    1.08    3.18
   8   6   9   13.49    6.40
  -8   6  -9    3.13    4.92
  -8   6  -9    1.89    5.89
   8   6  10   23.72    7.63
   8  -6  10   36.87   10.79
  -8   6 -10   31.97   12.26
  -8   6 -10   24.48   14.23
   8   6  11    0.79    2.16
   8  -6  11    7.03    5.39
  -8   6 -11   -6.35   10.18
  -8   6 -11    3.44    7.29
   8   6  12   23.90    7.70
   8  -6  12   42.92   11.55
  -8   6 -12   51.07   16.87
  -8   6 -12   49.22   14.42
   8   6  13   15.99    5.78
   8  -6  13    5.85    4.55
  -8   6 -13    4.00    5.00
  -8   6 -13    6.72    7.47
   8   6  14    6.47    4.00
   8  -6  14    7.13    5.20
  -8   6 -14    7.69    6.92
   8   6  15    9.40    3.48
   8  -6  15    3.42    3.25
  -8   6 -15    0.86    3.46
   8   6  16   -0.32    1.88
   8  -6  16    1.29    2.43
  -8   6 -16   -1.25    2.59
   8   6  17    4.92    1.95
   8  -6  17    7.35    2.79
  -8   6 -17   -0.42    3.27
   8   7 -16    3.10    1.58
   8   7 -16   12.66    4.46
   8   7 -15    1.71    1.55
   8   7 -15   15.96    5.05
   8   7 -14   13.84    3.58
   8   7 -14   15.58    5.14
   8   7 -14   28.26    6.76
   8  -7 -13   -0.66    2.74
   8   7 -13    4.14    3.64
   8   7 -13    5.95    4.39
   8   7 -13   -3.02    3.17
   8   7 -12   55.65    8.87
   8  -7 -12   28.40    7.97
   8   7 -12   47.57   10.14
   8   7 -12   42.16    9.85
   8  -7 -12   56.11    9.56
   8   7 -11   33.31    9.18
   8  -7 -11   38.54   11.01
   8   7 -11   57.90   13.64
   8   7 -11   52.61    9.90
   8  -7 -11   69.13   11.20
   8   7 -11   52.56    9.12
   8  -7 -10   27.14   11.56
   8   7 -10   22.86    9.26
   8  -7 -10   27.24    7.34
   8   7 -10   21.33    6.04
   8   7 -10   20.92    8.25
   8   7 -10   27.26    7.84
   8  -7  -9   -1.25    5.26
   8   7  -9   25.42   10.25
   8   7  -9   11.15    4.85
   8  -7  -9   17.94    7.70
   8   7  -9    6.23    5.89
   8   7  -9    2.38    4.11
  -8   7   9    9.03    5.49
   8   7  -8  135.82   21.30
   8  -7  -8  154.78   24.41
   8  -7  -8  181.92   20.92
   8   7  -8  145.68   16.92
   8   7  -8  135.48   18.71
   8   7  -8  164.55   25.30
  -8   7   8  204.65   27.01
   8   7  -7   11.90    6.61
   8   7  -7   17.25    8.31
   8   7  -7   12.42    6.45
   8  -7  -7   33.99    9.06
   8   7  -7   23.30    6.78
   8   7  -6  118.80   18.59
   8   7  -6   97.56   19.15
   8   7  -6   75.37   14.48
   8   7  -6   96.92   17.68
  -8  -7   6  123.57   19.21
  -8   7   6   96.11   15.11
   8   7  -5  104.57   17.46
   8   7  -5  149.62   24.20
   8   7  -5   98.03   16.63
   8   7  -5  111.11   19.41
  -8  -7   5  119.62   19.22
  -8   7   5  135.88   18.03
   8   7  -4  183.75   27.19
   8   7  -4  175.81   22.83
   8   7  -4  199.26   27.05
  -8  -7   4  245.59   28.06
  -8   7   4  241.56   25.26
   8   7  -4  160.89   20.06
   8   7  -3  169.30   23.25
   8   7  -3  200.01   27.91
  -8  -7   3  226.92   27.28
  -8   7   3  219.70   24.56
  -8   7   3  205.06   23.46
   8   7  -3  149.04   19.66
   8   7  -2   92.26   16.94
   8   7  -2  109.33   20.28
   8   7  -2   92.88   15.13
  -8   7   2   98.12   15.89
  -8   7   2  117.03   17.51
  -8  -7   2  115.79   18.78
   8   7  -1    7.66    4.59
   8   7  -1   -1.23    4.67
  -8   7   1   20.15   13.76
  -8   7   1    6.55    5.46
  -8  -7   1    6.37    5.88
  -8   7   1   -2.85    5.22
   8   7   0  410.44   31.98
  -8  -7   0  509.78   40.63
  -8   7   0  532.60   39.66
  -8   7   0  485.49   37.88
   8   7   0  383.70   38.12
  -8   7   0  509.74   52.30
  -8   7  -1   -1.82    4.39
  -8  -7  -1    9.25    6.34
  -8   7  -1    2.85    3.40
   8   7   1    8.69    5.20
  -8   7  -1    3.46    8.39
  -8  -7  -2  115.83   18.62
  -8   7  -2  101.05   16.66
  -8   7  -2  104.96   16.92
   8   7   2  101.10   15.56
  -8   7  -2   96.44   22.31
  -8   7  -2   96.75   21.82
   8   7   3  172.92   20.48
  -8  -7  -3  181.23   22.89
  -8   7  -3  195.22   23.64
  -8   7  -3  148.44   19.99
  -8   7  -3  191.44   28.88
  -8   7  -3  200.21   31.82
   8   7   4  203.59   22.61
  -8  -7  -4  218.00   25.75
  -8   7  -4  218.25   24.96
  -8   7  -4  159.24   27.32
  -8   7  -4  215.73   33.59
  -8  -7  -5  122.58   19.97
   8  -7   5  109.63   18.20
   8   7   5  128.41   18.02
  -8   7  -5   86.34   18.31
  -8   7  -5  134.02   27.22
   8   7   6  119.80   17.67
   8  -7   6  122.06   19.33
  -8   7  -6   98.54   24.76
  -8   7  -6   94.60   19.87
  -8   7  -6  110.56   21.98
   8  -7   7   39.67   10.19
   8   7   7   31.42    8.73
  -8   7  -7   28.08   12.70
  -8   7  -7   26.08   11.66
  -8   7  -7   24.99   11.42
   8   7   8  171.95   19.75
   8  -7   8  166.19   22.01
  -8   7  -8  164.77   26.41
  -8   7  -8  185.31   29.93
  -8   7  -8  149.25   27.13
  -8   7  -9    2.67    5.74
   8   7   9    9.96    5.76
   8  -7   9    7.54    4.12
  -8   7  -9   19.86   11.14
  -8   7  -9   20.37   12.18
   8   7  10   24.42    7.37
   8  -7  10   30.76    9.13
  -8   7 -10   33.68   13.26
  -8   7 -10    6.77    6.89
   8   7  11   60.56   10.77
   8  -7  11   64.49   13.20
  -8   7 -11   65.15   16.51
  -8   7 -11   68.94   17.96
   8   7  12   51.71    9.19
   8  -7  12   74.17   12.98
  -8   7 -12   81.83   17.10
  -8   7 -12   71.34   17.55
   8   7  13    0.94    1.95
   8  -7  13    0.67    3.79
  -8   7 -13    8.88    6.00
  -8   7 -13    2.06    3.14
   8   7  14   18.39    4.66
   8  -7  14   20.13    6.18
  -8   7 -14   25.89    9.01
  -8   7 -14   18.12    7.10
   8   7  15   13.06    3.75
  -8   7 -15   12.32    4.37
   8   7  16    3.68    1.68
  -8   7 -16    1.08    3.13
   8   8 -16    0.82    1.23
   8   8 -15    4.69    2.56
   8   8 -14   29.09    6.15
   8   8 -14   47.75    8.10
   8   8 -13   40.20    8.78
   8   8 -13   56.24    9.28
   8   8 -12    2.62    1.92
   8   8 -12    9.42    4.05
   8   8 -12    3.16    2.50
   8   8 -12   10.80    4.71
   8   8 -11   17.66    6.31
   8   8 -11   28.93    7.65
   8   8 -11   35.63   11.02
   8   8 -10    3.94    2.57
   8   8 -10    1.10    5.77
   8   8 -10    4.75    4.16
   8   8  -9   58.09   12.39
   8   8  -9   88.37   17.63
   8   8  -9   73.81   13.12
   8   8  -8   43.38   11.15
   8   8  -8   46.28   13.70
   8   8  -8   53.64   12.12
  -8   8   8   86.63   16.93
   8   8  -7  139.73   20.08
   8   8  -7  146.98   19.62
   8   8  -7  156.25   23.45
  -8   8   7  208.84   27.49
   8   8  -6   11.29    5.83
   8   8  -6   10.43    8.62
   8   8  -6   14.62    7.52
   8   8  -6    6.50    2.78
  -8   8   6    5.93    6.60
   8   8  -5  178.26   22.60
   8   8  -5  216.47   27.69
   8   8  -5  186.31   27.27
  -8   8   5  206.05   31.87
   8   8  -4   27.36   11.48
   8   8  -4   11.77    5.61
  -8   8   4   14.24    8.18
   8   8  -3  104.41   17.94
   8   8  -3  107.65   19.73
  -8   8   3  144.37   27.77
   8   8  -2    7.30    4.37
   8   8  -2    2.42    4.21
  -8   8   2    7.27    7.37
   8   8  -1  325.29   32.50
   8   8  -1  337.93   35.51
   8   8   0  222.01   26.86
   8   8   0  191.61   26.35
   8   8   1  316.22   34.72
  -8   8  -1  423.36   46.38
  -8   8  -1  307.82   39.90
   8   8   2    4.81    4.64
  -8   8  -2   19.06    9.31
  -8   8  -2    6.75    8.71
  -8   8  -3   99.46   21.57
  -8   8  -3  117.09   25.85
  -8   8  -4   10.39    9.74
  -8   8  -4   27.29   11.63
  -8   8  -5  232.15   31.25
  -8   8  -5  219.59   33.52
  -8   8  -6    8.06    4.74
  -8   8  -6   22.88   10.69
  -8   8  -6    5.08    7.02
  -8   8  -7  153.48   25.59
  -8   8  -7  145.35   23.96
  -8   8  -7  188.25   29.84
  -8   8  -8   71.50   16.49
  -8   8  -8   62.45   15.87
  -8   8  -8   54.13   13.17
  -8   8  -9   68.93   15.28
  -8   8  -9   87.83   17.80
  -8   8  -9   66.35   15.70
  -8   8 -10    9.86    7.58
  -8   8 -10    4.21    6.62
  -8   8 -11   38.30   10.76
  -8   8 -11   23.30    9.95
  -8   8 -12    7.39    7.25
  -8   8 -12   12.09    6.30
  -8   8 -13   54.34   11.89
  -8   8 -13   61.04   12.67
  -8   8 -14   83.12   14.21
  -8   8 -15    6.07    3.50
  -8   8 -16   -3.19    3.19
   8   9 -15    5.51    2.17
   8   9 -14    3.56    2.22
   8   9 -14    1.91    1.85
   8   9 -13   41.64    8.23
   8   9 -13   44.00    7.37
   8   9 -12   28.51    6.27
   8   9 -12   33.32    7.81
   8   9 -12   33.22    6.84
   8   9 -11   12.18    4.58
   8   9 -11   12.90    6.47
   8   9 -11   13.34    4.05
   8   9 -10    1.26    2.41
   8   9 -10    2.00    3.97
   8   9  -9   49.92   13.32
   8   9  -9   41.02    9.75
   8   9  -8   33.03   11.67
   8   9  -8   37.98   10.12
  -8   9   8   49.30   12.29
   8   9  -7   54.95   13.27
   8   9  -7   72.93   13.87
  -8   9   7   55.15   14.16
   8   9  -6   49.97   14.26
   8   9  -6   64.15   13.56
   8   9  -6   64.10   14.13
  -8   9   6   60.75   15.67
   8   9  -5   63.27   16.53
   8   9  -5   57.32   12.64
   8   9  -5   76.00   15.61
  -8   9   5   55.30   15.04
   8   9  -4   45.75   12.09
   8   9  -4   54.48   13.93
  -8   9   4   43.86   14.94
   8   9  -3    9.79    7.04
   8   9  -3   21.71    7.24
  -8   9   3    5.07    5.96
   8   9  -2   25.05   11.51
   8   9  -2    7.02    4.48
   8   9  -2   25.58   10.12
  -8   9   2   34.04   15.24
   8   9  -1  150.36   21.24
   8   9  -1  187.77   25.93
   8   9  -1  185.18   25.83
  -8   9   1  225.89   33.67
  -8   9   1  181.48   30.70
   8   9   0  270.17   29.31
   8   9   0  220.26   27.84
   8   9   0  226.24   28.68
   8   9   1  209.12   25.91
   8   9   1  169.93   24.11
   8   9   1  199.52   26.20
  -8   9  -1  116.83   23.34
   8   9   2   -1.19    5.58
  -8   9  -2   17.65   12.80
   8   9   3   17.89    6.50
  -8   9  -3   30.50   12.09
   8   9   4   56.47   14.04
  -8   9  -4   53.26   15.81
  -8   9  -5   66.95   17.11
  -8   9  -5   49.90   13.28
  -8   9  -6   44.37   13.03
  -8   9  -6   43.57   13.41
  -8   9  -7   68.47   17.37
  -8   9  -7   47.82   13.94
  -8   9  -7   70.09   15.35
  -8   9  -8   44.27   14.21
  -8   9  -8   26.15    9.28
  -8   9  -8   30.81   12.12
  -8   9  -9   51.62   12.09
  -8   9  -9   71.52   16.06
  -8   9  -9   59.41   14.39
  -8   9 -10   -6.42    4.14
  -8   9 -10    6.91    4.03
  -8   9 -11   24.62    9.69
  -8   9 -11    7.30    5.02
  -8   9 -12   34.27    9.91
  -8   9 -12   50.39    9.72
  -8   9 -12   43.49   11.62
  -8   9 -13   55.35   11.53
  -8   9 -13   59.53   11.32
  -8   9 -14   -3.80    4.00
  -8   9 -15   14.49    4.57
   8  10 -14    3.17    1.58
   8  10 -13    1.71    1.81
   8  10 -12    5.98    3.03
   8  10 -12    3.48    2.76
   8  10 -11   12.27    4.50
   8  10 -11    7.32    5.78
   8  10 -10   15.43    5.58
   8  10 -10   -0.87    5.23
   8  10  -9    1.33    3.20
   8  10  -9    0.99    3.07
   8  10  -8   75.18   15.89
   8  10  -8   46.55   10.14
  -8  10   8   59.30   10.66
   8  10  -7    5.67    5.69
   8  10  -7   15.98    7.30
  -8  10   7    9.41    7.24
   8  10  -6   32.91   11.58
   8  10  -6   22.81    7.70
   8  10  -6   35.99    9.92
  -8  10   6   31.87    9.70
   8  10  -5    1.76    4.62
   8  10  -5    0.99    4.26
  -8  10   5    1.32    5.57
   8  10  -4    5.42    4.46
   8  10  -4   -3.08    5.35
  -8  10   4    7.33    4.81
   8  10  -3   10.97    6.77
   8  10  -3    0.93    2.89
  -8  10   3    7.76    5.67
   8  10  -2   22.88    9.70
   8  10  -2   14.15    7.54
   8  10  -2   23.65   10.17
  -8  10   2    4.75    7.59
   8  10  -1   16.53    9.99
   8  10  -1   14.37    6.15
   8  10  -1    9.76    3.66
  -8  10   1   11.03    6.95
   8  10   0  360.42   32.62
   8  10   0  340.02   33.61
  -8  10   0  290.34   28.20
   8  10   0  360.85   35.38
  -8  10  -1    9.16    4.57
  -8  10  -1   22.23   11.55
   8  10   1    7.94    3.53
   8  10   1   11.70    5.45
   8  10   1    8.69    5.67
  -8  10  -1    4.55    7.72
   8  10   2   26.61   10.93
   8  10   2   35.13   10.00
   8  10   2   16.34    6.77
  -8  10  -2   14.85    9.35
  -8  10  -2   21.63    8.95
   8  10   3   22.62    9.24
   8  10   3    8.78    3.97
   8  10   3   31.81    9.98
   8  10   4    9.30    5.58
   8  10   4   10.01    6.94
  -8  10  -4   -2.85    7.57
   8  10   5    0.97    5.64
   8  10   5    3.38    3.47
  -8  10  -5    8.22    6.71
  -8  10  -6   45.47   13.15
   8  10   6   57.68   12.84
   8  10   6   20.45    7.94
  -8  10  -7    7.99    7.24
  -8  10  -8   59.42   12.86
  -8  10  -8   71.30   15.05
  -8  10  -8   63.40   13.39
  -8  10  -9   11.46    4.88
  -8  10  -9    3.98    5.29
  -8  10  -9    1.01    4.84
  -8  10 -10   16.50    7.51
  -8  10 -10    6.55    4.70
  -8  10 -11    7.43    4.32
  -8  10 -11    6.52    4.00
  -8  10 -11    4.16    2.96
  -8  10 -12    3.79    3.50
  -8  10 -12    5.79    4.22
  -8  10 -12    5.66    3.43
  -8  10 -13   -4.93    4.66
  -8  10 -14   -0.51    1.95
  -8  11  13    3.71    1.44
   8  11 -13    3.64    2.48
   8  11 -12    7.79    3.96
   8  11 -11    6.08    3.23
   8  11 -11    4.14    3.35
   8  11 -10    1.50    2.94
   8  11 -10    2.89    4.78
   8  11  -9   21.73    6.77
   8  11  -9   20.94    6.97
   8  11  -8    5.97    3.61
   8  11  -8   16.84    5.91
  -8  11   7    2.07    2.79
   8  11  -7    9.12    5.31
   8  11  -7   15.96    6.21
  -8  11   6   16.73    7.16
   8  11  -6   28.61    8.61
   8  11  -6   26.89    8.00
   8  11  -5   40.40   10.43
   8  11  -5   51.86   11.23
  -8  11   5   33.15    9.48
   8  11  -4   25.93    8.86
   8  11  -4   21.65    7.93
   8  11  -4   37.75    9.99
  -8  11   4   18.47    9.02
   8  11  -3  108.90   17.04
   8  11  -3  117.88   19.40
   8  11  -3  157.95   20.65
  -8  11   3  149.98   24.52
   8  11  -2    1.12    3.09
   8  11  -2    3.46    2.91
  -8  11   2    3.22    2.87
   8  11  -2    0.95    4.87
  -8  11   2    8.36    8.39
   8  11  -1   17.77    9.21
  -8  11   1   -4.06    5.82
   8  11  -1   -0.88    4.67
   8  11  -1   -0.96    3.43
  -8  11   1   25.15   11.54
  -8  11   0    0.79    4.80
   8  11   0   -1.10    5.55
  -8  11   0   -1.17    5.37
   8  11   0    0.89    4.24
   8  11   0   -0.97    4.45
  -8  11  -1   10.61    5.17
   8  11   1   -4.33    4.06
   8  11   1    0.89    3.16
   8  11   1    1.96    3.50
  -8  11  -1    5.99    4.90
   8  11   2   14.80    7.50
  -8  11  -2    5.85    6.80
   8  11   2   -0.99    4.30
  -8  11  -2    1.28    4.33
  -8  11  -3  105.16   19.44
   8  11   3  125.50   19.18
   8  11   3  140.59   21.01
  -8  11  -3  158.55   23.04
  -8  11  -4   12.85    7.72
   8  11   4   29.73    9.66
   8  11   4   13.15    7.79
  -8  11  -4   28.01    9.83
  -8  11  -5   20.08    8.53
   8  11   5   34.07    9.16
   8  11   5   51.94   11.41
   8  11   5   44.23   12.26
  -8  11  -5   49.93   12.67
  -8  11  -6   17.45    7.48
   8  11   6   31.28    8.58
   8  11   6   18.62    8.28
  -8  11  -6   25.02    8.34
  -8  11  -7   12.89    4.87
   8  11   7   13.62    7.35
  -8  11  -8    7.14    5.98
  -8  11  -9   29.43    7.10
  -8  11  -9   31.79    8.81
  -8  11 -10   -4.41    5.39
  -8  11 -11   12.40    4.39
  -8  11 -11    8.16    3.55
   8  11  12    7.21    3.36
  -8  11 -12    3.18    1.36
  -8  11 -12    1.76    3.04
   8  11  13   14.52    4.25
  -8  11 -13    3.93    3.15
  -8  12  12   36.11    6.14
   8  12 -12   36.05    6.56
   8  12 -11   -0.99    1.69
  -8  12  11    0.87    2.91
   8  12 -11   -1.80    2.19
  -8  12  10   51.85    9.08
   8  12 -10   47.46    8.00
   8  12 -10   51.80    9.67
   8  12  -9    1.98    1.88
   8  12  -9    2.69    2.71
   8  12  -8   26.18    6.98
   8  12  -8   33.97    9.26
   8  12  -7    6.31    3.59
  -8  12   7    4.84    4.64
  -8  12   6   18.79    6.57
   8  12  -6   10.87    5.25
   8  12  -6   14.03    6.06
  -8  12   6   13.35    5.77
  -8  12   5   -3.92    4.85
   8  12  -5    2.93    5.45
   8  12  -5    5.72    4.35
  -8  12   5    7.73    3.97
   8  12  -5   14.46    6.12
   8  12  -4  284.65   25.56
   8  12  -4  362.46   28.96
  -8  12   4  281.78   24.41
   8  12  -4  239.82   27.33
  -8  12   4  282.84   22.51
  -8  12   4  260.39   27.12
  -8  12   3   16.60    9.19
   8  12  -3   10.13    7.19
   8  12  -3    3.80    3.89
  -8  12   3    5.60    4.02
   8  12  -3   -4.03    5.02
  -8  12   2   59.37   14.66
   8  12  -2   63.14   13.70
  -8  12   2   66.13   11.11
   8  12  -2   66.43   12.56
   8  12  -2   86.20   14.35
  -8  12   1   12.30    6.98
  -8  12   1    5.66    3.77
   8  12  -1    5.08    3.81
   8  12  -1    1.56    3.05
   8  12  -1    3.38    4.33
  -8  12   0   77.39   16.03
   8  12   0   74.65   15.17
   8  12   0   65.49   12.10
   8  12   0   79.61   14.18
  -8  12   0   68.30   11.81
   8  12   1    4.94    5.12
  -8  12  -1    2.87    4.14
   8  12   1   10.37    6.05
  -8  12  -1   10.21    5.13
  -8  12  -2   57.46   12.92
  -8  12  -2   76.62   14.78
   8  12   2   90.68   16.46
   8  12   2   78.62   14.04
  -8  12  -3    0.98    3.22
   8  12   3    9.01    5.07
   8  12   3   12.74    4.60
  -8  12  -3    4.85    2.96
   8  12   3   -4.43    5.69
   8  12   4  385.41   30.04
   8  12   4  339.10   30.24
   8  12   4  298.12   27.44
  -8  12  -4  369.22   32.84
  -8  12  -4  264.43   27.47
  -8  12  -5    9.61    5.52
   8  12   5   10.34    6.11
   8  12   5    9.13    5.87
  -8  12  -5   -7.48    7.06
  -8  12  -6    9.66    6.42
   8  12   6   13.78    6.04
   8  12   6    4.41    3.80
  -8  12  -6   12.57    6.80
  -8  12  -7   15.71    5.96
   8  12   7    8.05    4.54
   8  12   7    6.58    5.22
  -8  12  -7   -1.69    4.01
  -8  12  -7    7.47    4.82
  -8  12  -8   28.83    7.45
   8  12   8   51.22    9.20
   8  12   8   41.62   10.03
  -8  12  -8   35.26    9.62
  -8  12  -8   27.19    8.03
  -8  12  -9   -3.55    2.12
   8  12   9    1.57    1.66
  -8  12  -9    0.71    4.01
  -8  12  -9    1.71    2.40
   8  12  10   65.03    9.71
  -8  12 -10   39.11    7.11
   8  12  11    0.39    1.35
  -8  12 -11    5.49    2.57
   8  12  12   81.51    8.64
  -8  12 -12   46.12    6.01
  -8  13  10    6.58    3.72
   8  13 -10    1.28    2.39
   8  13 -10    0.82    2.70
   8  13  -9   25.86    5.75
   8  13  -9   43.82    8.45
   8  13  -8   14.27    4.68
  -8  13   7    7.40    3.81
   8  13  -7   14.04    4.95
  -8  13   6   22.31    5.29
  -8  13   6   22.19    6.32
   8  13  -6   18.23    6.19
   8  13  -6   19.46    7.20
   8  13  -5   95.92   13.10
   8  13  -5   91.48   13.20
  -8  13   5   80.07   12.12
   8  13  -5   83.82   14.29
  -8  13   5   94.42   12.33
  -8  13   4   -5.29    4.55
   8  13  -4    1.68    3.24
  -8  13   4    1.18    2.65
   8  13  -4    5.08    4.08
   8  13  -4   11.53    5.40
   8  13  -3  182.31   19.09
   8  13  -3  208.76   20.90
  -8  13   3  155.73   16.60
   8  13  -3  168.97   20.83
  -8  13   3  183.92   17.07
  -8  13   3  179.03   20.42
  -8  13   2   -4.97    5.69
   8  13  -2    4.42    4.51
   8  13  -2    1.34    4.07
   8  13  -2    4.90    4.68
  -8  13   2   -0.58    3.19
  -8  13   2    3.12    3.36
  -8  13   1   58.18   11.93
   8  13  -1   54.32   12.04
   8  13  -1   58.04   11.04
  -8  13   1   62.08   10.30
  -8  13   1   63.95   11.64
  -8  13   0   17.80    6.70
   8  13   0   34.47    9.98
  -8  13   0   22.16    6.59
   8  13   0   34.26    8.63
  -8  13   0   38.61    9.91
   8  13   1   55.87   12.02
  -8  13  -1   47.13    8.61
   8  13   1   65.70   12.22
  -8  13  -1   85.40   14.88
   8  13   2    4.06    4.29
   8  13   2   15.55    5.94
   8  13   2    5.99    3.64
  -8  13  -2    5.73    4.78
   8  13   3  242.61   21.39
   8  13   3  229.07   22.85
   8  13   3  181.63   20.27
  -8  13  -3  227.08   23.50
  -8  13  -3  221.36   22.77
  -8  13  -3  156.91   19.43
  -8  13  -4    7.75    4.75
   8  13   4    0.60    2.37
  -8  13  -4    2.36    3.56
   8  13   4   16.14    6.35
  -8  13  -4    8.87    6.35
   8  13   5  142.66   15.37
   8  13   5  116.08   15.86
  -8  13  -5  100.49   15.36
  -8  13  -5   87.92   13.84
  -8  13  -5   86.23   13.46
  -8  13  -6   14.59    5.83
   8  13   6   22.37    5.88
   8  13   6   37.10    8.81
  -8  13  -6   29.71    8.65
  -8  13  -7   10.22    5.00
   8  13   7   13.72    5.11
   8  13   7    7.83    4.52
  -8  13  -7   13.21    6.05
  -8  13  -7    8.90    4.62
  -8  13  -8    3.68    2.49
   8  13   8    6.07    3.26
  -8  13  -8    7.62    4.31
  -8  13  -8    8.32    3.99
  -8  13  -9   25.47    5.67
  -8  13  -9   41.63    8.58
  -8  13  -9   47.73    7.73
   8  13  10    0.34    1.64
  -8  13 -10    2.73    2.60
  -8  13 -10   -2.92    3.24
   8  14  -9    7.18    2.53
   8  14  -8    7.62    2.99
   8  14  -7   21.69    5.05
   8  14  -7   24.42    6.53
  -8  14   7   26.52    6.05
   8  14  -6    0.45    1.50
  -8  14   6    5.05    2.99
  -8  14   5   28.75    5.54
   8  14  -5   26.42    6.34
   8  14  -5   23.08    5.67
  -8  14   5   32.06    6.62
   8  14  -5   31.90    8.04
   8  14  -4   75.85   10.94
   8  14  -4   95.10   12.08
  -8  14   4   96.38   11.69
   8  14  -4   84.60   13.13
  -8  14   4   72.33    9.80
  -8  14   3    5.23    3.49
   8  14  -3    8.10    3.47
  -8  14   3    4.58    2.77
   8  14  -3    4.76    3.60
  -8  14   3    4.99    2.10
  -8  14   2   69.11   11.16
   8  14  -2   78.05   11.33
  -8  14   2   64.87    9.45
   8  14  -2   58.18   10.86
  -8  14   2   59.95    9.08
  -8  14   1   30.26    8.02
  -8  14   1   36.40    7.06
   8  14  -1   42.98    8.86
   8  14  -1   32.50    8.73
  -8  14   1   26.05    7.02
  -8  14   0   -4.37    4.69
   8  14   0    3.32    3.40
  -8  14   0    4.11    2.50
   8  14   0    5.92    3.04
   8  14   0   -0.69    3.58
  -8  14   0   -2.83    4.74
  -8  14  -1   42.65    8.72
   8  14   1   53.10    9.35
   8  14   1   55.34    9.53
   8  14   1   39.89    9.06
  -8  14  -1   38.11    8.41
   8  14   2   69.03   10.52
   8  14   2   73.09   11.30
   8  14   2   67.23   11.50
  -8  14  -2   59.19    9.80
  -8  14  -3    2.21    1.83
   8  14   3   12.74    4.58
   8  14   3   11.03    5.20
  -8  14  -3    4.62    3.31
  -8  14  -4   65.91   10.32
   8  14   4   99.02   11.79
   8  14   4   86.86   12.44
  -8  14  -4  100.37   12.94
  -8  14  -5   31.23    7.24
   8  14   5   46.56    7.83
  -8  14  -5   29.63    7.28
   8  14   5   49.78    9.32
  -8  14  -5   32.39    7.22
  -8  14  -6    6.58    2.91
  -8  14  -6    9.83    4.83
   8  14   6   15.85    5.29
   8  14   6    1.07    2.49
  -8  14  -7   17.47    4.56
   8  14   7   36.40    6.76
  -8  14  -7   26.77    6.53
   8  14   7   38.78    7.54
  -8  14  -7   29.66    6.26
   8  14   8    7.40    3.23
   8  14   8    4.94    2.04
  -8  14  -8   11.01    4.21
  -8  14  -8    3.85    1.79
  -8  14  -9    8.67    3.08
   8  14   9   11.28    3.12
  -8  14  -9    3.86    2.15
   8  15  -6   11.80    3.70
  -8  15   6    7.22    2.80
   8  15  -6    9.71    3.48
   8  15  -5   -1.46    3.10
  -8  15   5    7.71    3.44
   8  15  -5    0.81    2.97
  -8  15   4   18.68    4.55
   8  15  -4   18.08    4.64
   8  15  -4   17.96    5.07
  -8  15   3   39.34    6.56
  -8  15   3   38.21    6.19
   8  15  -3   42.78    7.37
   8  15  -3   36.13    7.41
  -8  15   2    0.78    2.61
   8  15  -2    6.03    2.37
  -8  15   2    4.10    2.59
   8  15  -2    2.55    1.65
   8  15  -2    8.53    3.82
  -8  15   2    0.59    1.35
  -8  15   1   -1.69    2.79
  -8  15   1   -1.19    1.36
   8  15  -1    3.46    2.66
   8  15  -1   -1.32    3.34
   8  15  -1    4.66    2.16
  -8  15   1    7.00    3.16
  -8  15   0   37.41    7.38
  -8  15   0   28.80    4.84
   8  15   0   34.86    6.71
   8  15   0   31.98    6.39
   8  15   0   39.02    7.23
  -8  15   0   40.56    7.07
  -8  15  -1   -0.43    1.77
   8  15   1    0.42    1.34
   8  15   1    4.57    2.97
  -8  15  -1    2.51    2.39
   8  15   2    8.63    4.00
   8  15   2    5.44    2.77
  -8  15  -2    3.38    2.12
  -8  15  -3   39.56    6.91
   8  15   3   49.33    7.70
   8  15   3   48.99    8.00
  -8  15  -3   35.59    7.02
  -8  15  -4    7.64    3.59
   8  15   4   16.39    4.29
   8  15   4   18.26    5.03
  -8  15  -4   11.92    3.80
  -8  15  -5    4.68    1.92
   8  15   5    6.19    2.84
   8  15   5    5.60    3.20
  -8  15  -5    3.52    2.62
   8  15   6    8.28    2.81
   8  15   6    9.37    3.46
   8  16  -1    3.37    1.98
   8  16  -1   -0.92    1.29
  -8  16   1    0.50    0.88
  -8  16   1   -1.34    1.68
   8  16   0   14.76    3.63
   8  16   0   17.08    3.98
  -8  16   0    7.77    2.39
   8  16   1   -1.21    1.78
   8  16   1    0.31    1.19
  -8  16  -1   -1.96    2.21
   9   0 -17    0.95    2.36
   9   0 -16    0.88    2.47
   9   0 -16    0.37    1.33
   9   0 -15   -1.19    2.65
   9   0 -15    3.01    2.78
   9   0 -14    4.62    4.03
   9   0 -14   -2.62    3.59
   9   0 -13    4.80    3.98
   9   0 -13    8.19    3.49
   9   0 -12    4.47    4.46
   9   0 -12    8.68    5.96
   9   0 -11   83.76   16.96
   9   0 -11   82.04   15.80
   9   0 -10    7.54    7.02
   9   0 -10    1.10    3.68
   9   0  -9   37.93   12.03
   9   0  -9   40.99   12.38
   9   0  -8    6.27    7.90
   9   0  -8   -4.41    4.43
   9   0  -7    2.20    6.36
  -9   0   6   15.79    8.71
   9   0  -6    6.64    5.55
   9   0  -6   11.51    5.90
  -9   0   5   31.67   10.27
   9   0  -5   30.46   11.31
   9   0  -5   28.26   11.11
   9   0  -4    7.36    6.50
  -9   0   4   14.85    6.86
   9   0  -3  735.38   52.96
  -9   0   3  880.34   59.12
  -9   0   3  822.45   56.65
   9   0  -2   25.63   10.02
  -9   0   2   31.89   10.35
  -9   0   2   31.24   10.77
   9   0  -1   41.51   14.41
  -9   0   1   48.12   14.43
  -9   0   1   44.21   10.73
   9   0   0   -5.56    6.89
  -9   0   0    9.91    5.14
  -9   0   0    3.80    4.23
   9   0   1   35.81   13.47
  -9   0  -1   35.33   11.06
  -9   0  -1   35.92   11.12
   9   0   2   35.09   12.10
  -9   0  -2   29.01   10.19
  -9   0  -2   36.24   12.40
   9   0   3  987.28   72.42
  -9   0  -3  920.59   61.94
  -9   0  -3  908.21   60.19
   9   0   4   18.25   10.26
  -9   0  -4   12.13    7.79
  -9   0  -4    8.88    7.61
   9   0   5   25.56   11.71
  -9   0  -5   27.77   10.34
  -9   0  -5   16.35   10.03
   9   0   6   10.82    8.38
  -9   0  -6   -1.22    4.52
  -9   0  -6    7.58    7.63
   9   0   7   13.56    7.97
  -9   0  -7   14.10    9.08
   9   0   8   -2.97    5.75
   9   0   9   26.46   10.22
   9   0  10   -1.45    7.88
   9   0  11  108.75   21.89
   9   0  12    1.33    8.65
   9   0  13    7.99    5.36
   9   0  14    0.91    5.80
   9   0  15    3.44    4.77
   9   0  16    3.48    3.60
   9   0  17    1.38    2.24
   9  -1 -17   -0.32    1.16
   9  -1 -16    0.44    1.56
   9  -1 -16   -1.81    1.60
   9  -1 -15    1.79    2.00
   9  -1 -15    2.41    1.83
   9  -1 -14    6.96    4.50
   9  -1 -14   11.14    4.49
   9  -1 -13   11.58    7.67
   9  -1 -13    2.30    3.75
   9  -1 -12   -0.90    2.83
   9  -1 -12    5.63    6.54
   9  -1 -11   21.99   10.47
   9  -1 -11   12.03    5.18
   9  -1 -10   56.89   14.43
   9  -1 -10   38.30   11.68
   9  -1  -9   13.93    8.19
   9  -1  -9   27.18    9.95
   9  -1  -8   82.56   16.68
   9  -1  -8   54.19   13.51
   9  -1  -7   45.37   12.16
  -9  -1   6   60.19   16.40
   9  -1  -6   48.80   11.57
   9  -1  -6   53.44   13.85
  -9  -1   5   15.37    9.19
   9  -1  -5    6.61    4.27
   9  -1  -5   12.76    7.00
   9  -1  -4   86.90   16.61
  -9  -1   4   93.36   18.75
   9  -1  -3    5.70    7.25
  -9  -1   3   13.55    7.34
  -9  -1   3   16.23    8.55
   9  -1  -2   63.66   14.76
  -9  -1   2   50.21   12.95
  -9  -1   2   32.44   12.09
   9  -1  -1   51.08   14.26
  -9  -1   1   50.29   13.19
  -9  -1   1   48.98   14.16
   9  -1   0  486.04   45.14
  -9  -1   0  517.09   44.29
  -9  -1   0  486.81   42.13
   9  -1   1   58.80   14.85
  -9  -1  -1   42.49   12.94
  -9  -1  -1   40.67   11.77
   9  -1   2   56.26   15.99
  -9   1  -2  103.19   31.96
  -9  -1  -2   50.04   13.23
  -9  -1  -2   55.22   15.27
   9  -1   3   16.31   11.35
  -9   1  -3   23.35   10.58
  -9  -1  -3   18.45    7.02
  -9  -1  -3   12.77    9.05
   9  -1   4  114.22   23.19
  -9  -1  -4  105.09   19.56
  -9  -1  -4  115.05   21.22
   9  -1   5   11.03    9.21
  -9  -1  -5    8.45    4.47
  -9  -1  -5   10.06    8.10
   9  -1   6   38.13   13.78
  -9  -1  -6   56.16   15.18
  -9  -1  -6   55.60   15.40
   9  -1   7   50.49   16.62
  -9  -1  -7   46.32   14.57
   9  -1   8   55.36   16.24
   9  -1   9    5.75    5.33
   9  -1  10   49.38   14.06
   9  -1  11   23.18   10.61
   9  -1  12    1.28    5.46
   9  -1  13    5.72    5.32
   9  -1  14   11.85    5.80
   9  -1  15    9.00    4.25
   9  -1  16    1.00    2.89
   9  -1  17    2.77    2.28
   9  -2 -16    6.53    3.22
   9   2 -16    1.18    1.57
   9  -2 -16    2.07    1.95
   9   2 -16    2.01    1.51
   9  -2 -15   48.70    9.31
   9   2 -15   41.79    8.26
   9  -2 -15   42.77    7.70
   9   2 -15   46.52    7.75
   9  -2 -14    7.67    4.55
   9   2 -14    8.97    3.96
   9  -2 -14   15.12    5.22
   9   2 -14    9.39    4.20
   9  -2 -13   28.88    9.22
   9   2 -13   27.65    8.18
   9  -2 -13   29.23    8.08
   9   2 -13   30.34    8.19
   9  -2 -12    3.41    5.90
   9   2 -12    6.13    7.29
   9  -2 -12    8.37    5.90
   9   2 -12   16.00    6.66
   9  -2 -11    4.96    5.39
   9   2 -11    8.95    6.65
   9  -2 -11    5.62    2.53
   9   2 -11    5.56    3.39
   9  -2 -10   25.69   11.27
   9   2 -10   19.86    7.55
   9  -2 -10   13.97    4.76
   9   2 -10   24.34    9.46
   9  -2  -9   88.71   18.35
   9   2  -9   65.99   15.03
   9  -2  -9   74.03   14.41
   9   2  -9   49.36   11.18
   9  -2  -8   74.66   17.24
   9   2  -8  102.88   19.36
   9   2  -8   92.89   16.64
   9  -2  -8   83.40   16.75
   9   2  -8   92.88   16.80
   9  -2  -7  626.28   45.99
   9  -2  -7  669.82   50.92
   9   2  -7  666.53   48.97
   9   2  -7  512.70   40.99
   9   2  -7  605.16   45.53
   9  -2  -6  123.02   19.41
   9   2  -6  122.14   18.62
  -9  -2   5   46.18   14.35
  -9   2   5   53.27   13.42
   9  -2  -5   50.48   11.87
   9   2  -5   43.21   10.58
   9  -2  -5   43.98   12.97
   9   2  -5   45.62   12.45
   9   2  -4  119.14   19.72
  -9  -2   4  148.52   24.40
  -9   2   4  170.44   23.30
  -9  -2   4  144.64   23.27
  -9   2   4  123.56   19.59
   9  -2  -4  131.93   21.79
   9  -2  -3   42.97   12.14
  -9  -2   3   43.15   13.00
  -9   2   3   61.35   13.50
  -9  -2   3   56.14   14.42
  -9   2   3   35.42   11.33
   9   2  -2  111.87   19.58
   9  -2  -2  117.70   21.37
  -9  -2   2  117.42   20.45
  -9   2   2  100.74   17.88
  -9  -2   2  133.14   21.54
  -9   2   2  122.96   20.28
   9   2  -1  670.43   49.89
   9  -2  -1  763.53   54.95
  -9  -2   1  811.42   56.26
  -9   2   1  769.45   52.59
  -9  -2   1  781.45   54.51
  -9   2   1  683.15   49.18
   9   2   0   75.38   16.35
   9  -2   0   64.76   15.62
  -9  -2   0   65.56   15.66
  -9   2   0   72.79   14.58
  -9  -2   0  109.59   20.65
  -9   2   0   98.35   18.44
   9   2   1  730.41   54.29
   9  -2   1  740.89   57.87
  -9  -2  -1  773.26   54.80
  -9   2  -1  737.03   51.85
  -9  -2  -1  723.12   52.83
  -9   2  -1  670.79   49.06
   9   2   2  106.96   20.97
   9  -2   2  120.37   23.16
  -9   2  -2  136.39   30.75
  -9  -2  -2  110.66   20.25
  -9   2  -2  127.12   20.48
  -9  -2  -2  140.14   22.14
  -9   2  -2   99.92   18.12
   9   2   3   51.06   15.55
   9  -2   3   60.25   17.53
  -9  -2  -3   60.95   15.88
  -9   2  -3   52.96   13.54
  -9  -2  -3   34.12   11.14
  -9   2  -3   39.98   12.93
  -9   2  -3   57.82   21.28
  -9  -2  -4  176.52   25.53
  -9   2  -4  165.19   23.79
  -9  -2  -4  152.17   23.44
  -9   2  -4  141.04   21.39
   9  -2   4  179.16   29.44
   9   2   4  144.92   24.94
  -9   2  -4  172.76   32.57
  -9  -2  -5   39.79   11.85
  -9   2  -5   40.90   12.11
  -9  -2  -5   53.93   14.40
  -9   2  -5   52.58   13.15
   9   2   5   57.18   15.49
   9  -2   5   63.96   16.55
  -9  -2  -6  140.85   23.85
  -9   2  -6  157.98   24.13
   9   2   6  181.21   28.27
   9  -2   6  152.31   26.69
  -9   2  -6  150.21   29.30
   9   2   7  611.56   51.60
   9  -2   7  665.56   55.28
  -9  -2  -7  664.34   52.38
  -9   2  -7  560.71   47.10
  -9   2  -7  679.76   62.56
   9   2   8   91.65   19.45
   9  -2   8  104.15   20.83
  -9   2  -8  125.19   25.96
   9   2   9   79.33   17.97
   9  -2   9   73.78   17.93
   9   2  10   31.10   12.52
   9  -2  10   29.93   11.99
   9   2  11    6.31    6.84
   9  -2  11   -1.30    6.09
   9   2  12   12.32    7.08
   9  -2  12    9.70    5.40
   9   2  13   32.39    9.44
   9  -2  13   65.84   14.87
   9   2  14   22.28    7.21
   9  -2  14   16.07    8.33
   9   2  15   52.72    9.90
   9  -2  15   72.40   12.32
   9   2  16    2.98    2.98
   9  -2  16    2.43    2.21
   9  -3 -16   22.25    5.57
   9   3 -16   10.01    3.86
   9  -3 -16   16.37    4.03
   9   3 -16   12.97    3.33
   9  -3 -15   24.65    6.32
   9   3 -15    8.71    4.07
   9  -3 -15   12.47    4.23
   9   3 -15   12.81    3.97
   9  -3 -14   86.24   11.80
   9   3 -14   91.00   12.11
   9  -3 -14   76.86   13.06
   9   3 -14   72.95   11.92
   9   3 -13    4.81    2.70
   9  -3 -13   11.25    6.16
   9  -3 -13    6.49    4.57
   9   3 -13    1.30    2.29
   9  -3 -12   10.18    6.22
   9   3 -12   15.46    5.95
   9  -3 -12   31.33    8.36
   9   3 -12   21.44    7.33
   9  -3 -11    3.75    6.57
   9   3 -11    9.66    5.85
   9  -3 -11   12.04    5.21
   9   3 -11    5.97    4.28
   9   3 -10   25.98    9.93
   9  -3 -10   29.69    9.44
   9   3 -10   37.97   10.18
   9  -3  -9   14.42    7.17
   9   3  -9    2.29    5.40
   9   3  -9    5.82    5.70
   9  -3  -9   25.06    9.04
   9   3  -9    6.49    4.91
   9  -3  -8  358.99   37.45
   9   3  -8  316.09   33.56
   9  -3  -8  331.63   31.53
   9   3  -8  285.65   29.15
   9   3  -8  311.48   31.87
   9  -3  -7   65.52   15.91
   9   3  -7   40.49   12.87
   9   3  -7   53.65   14.37
   9  -3  -7   34.74   11.33
   9   3  -7   39.52    9.79
   9  -3  -6  676.53   47.08
   9   3  -6  655.69   44.91
  -9  -3   5   52.65   14.40
  -9   3   5   51.80   12.81
   9  -3  -5   63.20   15.51
   9   3  -5   57.58   13.09
  -9  -3   4   -1.23    4.73
  -9   3   4    8.27    7.62
  -9  -3   4    2.48    6.20
  -9   3   4    1.04    3.71
   9  -3  -4    9.52    6.59
   9   3  -4   -1.08    6.37
  -9  -3   3   85.77   16.90
  -9   3   3   80.26   16.64
  -9  -3   3   70.48   17.18
  -9   3   3   67.24   15.04
   9   3  -2  826.88   53.27
   9  -3  -2  811.98   55.18
  -9  -3   2  900.89   59.90
  -9   3   2  802.98   53.77
  -9  -3   2  876.77   58.42
  -9   3   2  822.73   53.70
   9   3  -1   29.36   11.15
   9  -3  -1   38.30   11.27
  -9  -3   1   38.00   11.30
  -9   3   1   32.90   11.17
  -9  -3   1   41.23   12.12
  -9   3   1   44.65   13.12
   9   3   0  848.19   56.29
   9  -3   0  972.19   63.86
  -9  -3   0  975.40   62.50
  -9   3   0  913.43   57.79
  -9  -3   0  937.03   60.69
  -9   3   0  877.31   56.35
   9   3   1   40.57   11.19
   9  -3   1   44.62   14.65
  -9   3  -1   60.96   19.89
  -9  -3  -1   44.65   13.30
  -9   3  -1   33.39   10.67
  -9  -3  -1   39.09   11.51
  -9   3  -1   24.86   10.44
   9   3   2  813.05   57.27
   9  -3   2  939.68   65.68
  -9  -3  -2  901.75   60.56
  -9   3  -2  804.87   54.22
  -9  -3  -2  933.48   60.22
  -9   3  -2  825.19   53.86
  -9   3  -2  865.56   72.59
  -9  -3  -3   72.11   16.63
  -9   3  -3   70.06   14.90
  -9  -3  -3   78.72   17.64
  -9   3  -3   77.18   16.05
   9   3   3   71.47   17.48
   9  -3   3   69.82   16.42
  -9   3  -3   93.23   22.98
  -9  -3  -4    1.19    3.09
  -9   3  -4    4.16    4.11
  -9  -3  -4    9.92    9.11
  -9   3  -4   -4.34    4.43
   9   3   4   10.76    5.98
   9  -3   4    7.78    6.35
  -9   3  -4    7.38    7.69
  -9  -3  -5   51.63   14.06
  -9   3  -5   52.45   14.35
  -9  -3  -5   51.02   13.76
  -9   3  -5   54.28   13.67
   9   3   5   47.25   13.32
   9  -3   5   66.82   16.22
  -9   3  -5   35.91   14.01
   9   3   6  735.59   54.85
   9  -3   6  829.01   62.40
  -9  -3  -6  748.67   56.08
  -9   3  -6  649.38   49.22
  -9   3  -6  638.02   59.24
  -9  -3  -7   27.32   10.35
   9   3   7   26.03    9.37
   9  -3   7   36.68   10.89
  -9   3  -7   51.11   16.98
   9   3   8  374.48   37.88
   9  -3   8  382.38   40.13
  -9   3  -8  311.63   40.96
   9   3   9   12.18    9.14
   9  -3   9    9.28    9.22
  -9   3  -9    7.11    6.72
   9   3  10   40.98   13.58
   9  -3  10   52.31   15.87
  -9   3 -10   32.71   14.77
   9   3  11   13.38    7.11
   9  -3  11   21.89   10.10
  -9   3 -11   18.96    9.63
   9   3  12   16.97    7.97
   9  -3  12   42.63   12.13
  -9   3 -12   33.69   12.13
   9   3  13    7.67    4.79
   9  -3  13    9.92    6.42
   9   3  14  100.68   14.81
   9  -3  14  120.33   17.84
   9   3  15   18.30    6.24
   9  -3  15   15.82    6.62
   9   3  16   26.88    5.85
   9  -3  16   26.18    5.88
   9  -4 -16    5.14    2.12
   9   4 -16    1.88    2.20
   9  -4 -15   52.19    9.43
   9   4 -15   32.08    6.70
   9  -4 -15   35.88    6.12
   9   4 -15   39.32    6.31
   9  -4 -14   15.55    6.03
   9   4 -14   16.97    5.71
   9  -4 -14   20.82    5.43
   9   4 -14   20.94    5.21
   9  -4 -13   34.85    9.85
   9   4 -13   31.05    8.42
   9  -4 -13   34.19    7.73
   9   4 -13   37.48    7.86
   9  -4 -12   13.96    6.11
   9   4 -12   14.14    6.45
   9  -4 -12   12.83    5.93
   9   4 -12   18.72    6.75
   9  -4 -11   13.50    9.10
   9   4 -11   -1.01    3.61
   9  -4 -11    7.68    2.94
   9   4 -11    6.82    3.77
   9  -4 -10   66.46   15.10
   9   4 -10   74.54   15.91
   9   4 -10   66.87   13.31
   9  -4 -10   84.86   14.52
   9   4 -10   85.79   14.04
   9  -4  -9   31.66   10.25
   9   4  -9   32.09   10.80
   9   4  -9   27.79    9.53
   9  -4  -9   28.45    9.01
   9   4  -9   34.88    9.80
   9  -4  -8   36.31   11.99
   9   4  -8   29.71   10.64
   9   4  -8   29.38   10.05
   9  -4  -8   25.61    7.78
   9   4  -8   17.37    6.40
   9  -4  -7  495.74   43.64
   9   4  -7  415.11   37.34
   9  -4  -7  422.22   34.81
   9   4  -7  381.06   32.56
   9   4  -7  431.53   38.99
   9  -4  -6  262.22   27.15
   9   4  -6  238.65   25.52
   9   4  -6  293.13   32.22
  -9   4   5  111.80   18.16
  -9  -4   5  104.28   19.94
  -9  -4   4   13.22    7.75
  -9   4   4    8.95    5.77
  -9  -4   4   -2.41    3.92
  -9   4   4   14.91    7.66
   9  -4  -4    8.07    6.63
   9   4  -4   15.28    7.61
   9  -4  -3    8.36    5.99
   9   4  -3   14.76    6.96
  -9  -4   3   18.03    8.94
  -9   4   3    8.22    6.23
  -9  -4   3   10.90    4.40
  -9   4   3    7.25    5.72
   9   4  -2  446.47   37.28
   9  -4  -2  509.66   42.43
   9   4  -2  423.73   36.26
  -9  -4   2  541.08   45.38
  -9   4   2  511.71   41.01
  -9  -4   2  519.12   43.55
  -9   4   2  544.69   42.01
   9   4  -1  501.61   40.06
   9  -4  -1  547.17   44.86
   9   4  -1  494.78   40.27
  -9  -4   1  596.75   47.63
  -9   4   1  548.65   43.33
  -9  -4   1  562.99   45.36
  -9   4   1  545.84   42.70
   9   4   0   -3.17    6.70
   9  -4   0   14.93    8.89
  -9  -4   0   -2.46    5.16
  -9   4   0    2.19    4.19
  -9  -4   0    6.20    6.64
  -9   4   0    7.71    6.75
   9   4   1  568.00   44.25
   9  -4   1  615.00   49.81
  -9   4  -1  518.76   52.55
  -9  -4  -1  632.34   49.12
  -9   4  -1  569.25   44.30
  -9  -4  -1  595.04   47.17
  -9   4  -1  576.87   44.13
   9   4   2  461.68   40.79
   9  -4   2  556.98   48.24
  -9  -4  -2  632.96   49.29
  -9   4  -2  526.01   42.09
  -9  -4  -2  553.54   45.05
  -9   4  -2  502.22   40.72
  -9   4  -2  493.91   51.63
  -9  -4  -3    2.36    5.74
  -9   4  -3    6.17    6.23
  -9  -4  -3    9.81    5.41
  -9   4  -3   11.74    5.62
   9   4   3    8.22    5.11
   9  -4   3   16.81    7.18
  -9   4  -3   20.33   10.97
  -9  -4  -4   13.90    4.87
  -9   4  -4   21.42    7.97
  -9  -4  -4   19.21    9.46
  -9   4  -4    7.40    5.31
   9   4   4   27.74   11.39
   9  -4   4    7.14    7.12
  -9   4  -4    4.96    5.93
  -9   4  -5  112.27   19.04
  -9  -4  -5  120.48   20.56
   9  -4   5  159.40   26.29
   9   4   5  110.78   20.28
  -9   4  -5   96.51   21.92
   9   4   6  290.33   32.14
   9  -4   6  273.57   33.14
  -9  -4  -6  255.69   30.37
  -9   4  -6  265.61   30.22
  -9   4  -6  239.86   34.79
   9   4   7  490.58   41.86
   9  -4   7  496.76   44.87
  -9   4  -7  396.15   45.67
  -9   4  -7  554.58   53.56
   9   4   8   42.98   12.34
   9  -4   8   17.77    7.07
  -9   4  -8   25.88   11.59
   9   4   9   38.02   11.82
   9  -4   9   26.83   10.81
  -9   4  -9   15.89    8.03
   9   4  10  114.57   19.07
   9  -4  10   78.92   16.33
  -9   4 -10   66.86   21.09
   9   4  11    8.69    6.57
   9  -4  11   -2.18    5.73
  -9   4 -11   14.84   10.72
   9   4  12   12.91    5.49
   9  -4  12   14.96    7.11
  -9   4 -12    7.14    5.04
   9   4  13   46.22    9.91
   9  -4  13   52.51   11.79
  -9   4 -13   35.15   11.63
   9   4  14   23.59    6.10
   9  -4  14   40.72    9.73
  -9   4 -14   23.80    8.79
   9   4  15   50.75    8.42
   9  -4  15   54.57    9.80
   9   4  16    0.32    1.52
   9  -4  16    2.76    1.53
   9  -5 -16   -2.08    2.01
   9   5 -16   -1.00    1.34
   9   5 -16    2.73    2.43
   9  -5 -15   11.42    4.25
   9   5 -15   15.55    4.63
   9  -5 -15   11.39    3.38
   9   5 -15   12.10    3.05
   9  -5 -14   22.92    6.58
   9   5 -14   13.78    4.28
   9  -5 -14   19.02    4.68
   9   5 -14   23.61    4.72
   9  -5 -13   12.03    5.84
   9   5 -13    6.79    4.47
   9  -5 -13    7.73    3.83
   9   5 -13   15.94    5.05
   9   5 -12   -1.54    4.01
   9  -5 -12    6.64    6.25
   9  -5 -12   -1.74    2.68
   9   5 -12    0.55    2.54
   9  -5 -11   90.86   17.74
   9   5 -11   86.81   15.90
   9   5 -11   85.74   12.88
   9   5 -11   76.85   13.12
   9  -5 -11   88.18   13.04
   9  -5 -10   16.14    8.16
   9   5 -10   18.03    7.80
   9   5 -10   16.16    6.54
   9  -5 -10   14.11    5.58
   9   5 -10   21.89    6.79
   9  -5  -9  110.10   20.69
   9   5  -9   53.27   13.33
   9   5  -9   62.05   14.12
   9  -5  -9   97.57   14.93
   9   5  -9   75.16   13.12
   9  -5  -8   24.13    9.47
   9   5  -8   37.81   11.27
   9   5  -8   34.75   10.62
   9  -5  -8   26.07    7.44
   9   5  -8   28.19    8.31
   9  -5  -7  209.76   28.27
   9   5  -7  203.13   25.33
   9   5  -7  194.20   26.44
   9  -5  -6  118.65   20.57
   9   5  -6  111.25   18.38
   9   5  -6   85.40   17.18
  -9  -5   6   86.91   18.11
  -9   5   6   80.17   14.92
   9   5  -5   85.22   14.62
   9   5  -5  121.47   20.93
  -9  -5   5  108.16   19.37
  -9   5   5   91.98   15.99
   9   5  -4   32.43    9.72
  -9  -5   4   43.44   12.77
  -9   5   4   57.49   13.21
   9   5  -3  298.52   29.57
  -9  -5   3  438.19   39.95
  -9   5   3  424.73   36.16
   9  -5  -3  403.82   36.80
   9   5  -2   68.28   14.57
  -9  -5   2   81.39   16.52
  -9   5   2   75.00   14.72
  -9  -5   2   78.46   16.34
  -9   5   2   57.81   13.90
   9   5  -1  261.63   26.96
   9  -5  -1  257.47   28.81
   9   5  -1  255.20   28.83
  -9  -5   1  333.70   34.83
  -9   5   1  289.87   30.01
  -9  -5   1  324.52   33.84
  -9   5   1  267.62   29.07
   9   5   0  439.30   36.79
   9  -5   0  530.33   42.74
  -9   5   0  469.62   49.10
  -9  -5   0  559.94   45.92
  -9   5   0  510.40   40.98
  -9  -5   0  539.22   44.55
  -9   5   0  508.82   40.62
   9   5   1  261.53   27.94
   9  -5   1  328.33   33.73
  -9   5  -1  247.50   35.15
  -9  -5  -1  311.41   33.70
  -9   5  -1  283.38   29.98
  -9  -5  -1  342.22   34.54
  -9   5  -1  272.90   28.81
   9   5   2   74.05   14.57
   9  -5   2   89.55   17.58
  -9   5  -2   62.01   17.12
  -9  -5  -2   74.07   16.15
  -9   5  -2   66.83   13.50
  -9  -5  -2   74.02   16.17
  -9   5  -2   70.92   15.04
   9   5   3  392.81   35.68
   9  -5   3  485.72   42.68
  -9  -5  -3  448.21   39.49
  -9   5  -3  420.76   36.89
  -9   5  -3  363.21   41.58
  -9  -5  -4   49.46   12.88
  -9   5  -4   41.93   11.81
   9   5   4   64.57   14.13
   9  -5   4   65.51   14.86
  -9   5  -4   49.29   14.37
  -9   5  -5  104.16   18.57
  -9  -5  -5  106.92   19.26
   9   5   5   93.60   17.30
   9  -5   5  117.77   20.85
  -9   5  -5   97.60   23.32
  -9   5  -5   89.86   20.77
  -9  -5  -6   85.33   17.01
   9   5   6  106.49   18.29
   9  -5   6   98.09   19.50
  -9   5  -6  116.29   24.13
  -9   5  -6   62.79   17.52
   9   5   7  230.76   27.55
   9  -5   7  222.19   28.28
  -9   5  -7  261.37   36.30
   9   5   8   36.71   10.81
   9  -5   8   40.09   12.88
  -9   5  -8   23.70   11.89
  -9   5  -8   33.92   11.51
   9   5   9  105.15   17.16
   9  -5   9   93.79   17.87
  -9   5  -9   61.37   18.45
   9   5  10   21.08    7.09
   9  -5  10   13.34    6.61
  -9   5 -10   23.39    9.93
   9   5  11   92.75   14.53
   9  -5  11   87.46   15.78
  -9   5 -11   79.95   20.01
   9   5  12    2.13    3.32
   9  -5  12   -6.02    6.19
  -9   5 -12    2.77    4.92
   9   5  13    9.61    4.30
   9  -5  13   14.11    6.43
  -9   5 -13   23.25    8.35
   9   5  14   18.32    5.04
   9  -5  14   33.56    8.25
  -9   5 -14   21.06    7.16
   9   5  15   18.85    4.77
   9  -5  15   14.53    4.45
  -9   5 -15   11.99    4.68
   9  -5  16    7.32    3.06
   9   5  16    5.12    2.28
   9  -6 -15    0.63    1.34
   9   6 -15   -0.27    1.33
   9   6 -15    3.16    1.55
   9  -6 -14   14.94    4.78
   9   6 -14   11.05    4.31
  -9   6  14   11.46    3.41
   9  -6 -13   -2.35    1.81
   9   6 -13    0.49    2.21
   9  -6 -13    1.59    2.31
   9   6 -13    0.35    1.44
   9  -6 -12    4.57    3.01
   9   6 -12    5.63    4.40
   9   6 -12    1.77    2.80
   9  -6 -12    2.43    3.23
   9   6 -12   14.62    4.90
   9  -6 -11   81.09   15.23
   9   6 -11   65.15   12.79
   9  -6 -11   95.92   12.82
   9   6 -11  109.99   12.96
   9   6 -11   95.35   14.78
   9  -6 -10   93.04   17.72
   9   6 -10   62.65   12.82
   9  -6 -10   90.63   13.27
   9   6 -10   86.09   12.03
   9   6 -10   62.94   12.88
   9  -6  -9    4.67    4.64
   9   6  -9    5.69    3.01
   9   6  -9   11.86    6.81
  -9   6   9    1.85    2.97
   9   6  -8   34.99   10.79
   9  -6  -8   42.66   13.06
   9   6  -8   38.41   12.17
  -9  -6   8   48.20   12.09
  -9   6   8   39.63    9.12
   9  -6  -7    5.81    6.55
   9   6  -7   -0.97    3.51
   9   6  -7    5.66    6.56
   9   6  -7    2.25    3.49
  -9  -6   7    9.99    5.37
  -9   6   7    4.93    4.16
   9  -6  -6  100.18   18.24
   9   6  -6   90.15   15.72
   9   6  -6  128.68   21.09
   9   6  -6   78.27   13.65
  -9   6   6  103.87   15.84
  -9  -6   6  101.72   17.04
   9  -6  -5   10.94    6.87
   9   6  -5   23.37    7.84
   9   6  -5   20.77    8.77
   9   6  -5   28.66   10.42
  -9  -6   5   28.28    9.99
  -9   6   5   22.00    6.75
   9   6  -4   71.09   13.63
   9   6  -4   78.73   16.91
  -9  -6   4  110.43   19.11
  -9   6   4   78.30   14.76
   9   6  -3  421.66   35.48
  -9   6   3  499.71   38.15
   9   6  -2  353.68   33.05
  -9   6   2  406.65   34.97
   9   6  -1    8.37    5.71
  -9  -6   1   12.68    8.66
  -9   6   1   13.72    5.88
   9   6   0   36.16    9.61
   9  -6   0   44.61   11.09
  -9   6   0   28.80   12.04
   9   6   0   38.44   11.10
  -9  -6   0   66.79   15.32
  -9   6   0   55.56   13.04
   9   6   1   12.04    5.98
   9  -6   1   14.24    7.71
  -9   6  -1    6.52    7.81
  -9  -6  -1   22.47    9.72
  -9   6  -1    8.82    6.29
   9   6   2  375.95   31.76
   9  -6   2  396.88   35.78
  -9   6  -2  330.34   39.16
  -9  -6  -2  435.45   37.92
  -9   6  -2  420.55   35.46
   9   6   3  477.82   36.31
   9  -6   3  551.17   42.41
  -9  -6  -3  465.86   39.29
  -9   6  -3  486.93   38.50
  -9   6  -3  426.46   44.22
  -9  -6  -4   90.36   16.84
  -9   6  -4  103.48   17.44
   9   6   4  102.21   16.48
   9  -6   4  111.02   18.51
  -9   6  -4   86.42   21.99
  -9   6  -4   71.98   17.96
  -9  -6  -5   28.12    9.87
  -9   6  -5   19.76    8.03
   9   6   5   18.09    7.18
   9  -6   5   25.92    8.66
  -9   6  -5    4.23    5.87
  -9   6  -5   21.34   13.81
   9  -6   6  133.00   20.64
   9   6   6  101.02   16.56
  -9   6  -6   79.90   18.28
  -9   6  -6  101.56   25.45
   9   6   7    9.96    5.64
   9  -6   7    5.28    7.75
  -9   6  -7   16.15   10.38
  -9   6  -7   -4.25    3.77
   9   6   8   46.50   10.86
   9  -6   8   55.99   13.95
  -9   6  -8   66.49   16.31
  -9   6  -8   33.06   12.40
   9   6   9    6.96    3.10
   9  -6   9    1.92    4.14
  -9   6  -9   11.59    9.02
   9   6  10  105.25   15.07
   9  -6  10   86.67   15.65
  -9   6 -10   85.97   20.12
   9   6  11  108.71   14.40
   9  -6  11  106.88   16.43
  -9   6 -11   78.58   18.48
   9   6  12   14.46    5.18
   9  -6  12   15.90    5.44
  -9   6 -12    9.54    5.92
   9   6  13   -0.93    2.85
   9  -6  13    4.29    2.71
  -9   6 -13    2.91    4.31
   9   6  14   13.91    4.03
   9  -6  14   12.70    4.34
  -9   6 -14   24.50    7.53
   9  -6  15    2.16    1.36
   9   6  15    0.27    1.14
  -9   6 -15   -2.48    3.42
   9   7 -14    1.76    1.04
   9   7 -14    4.34    2.66
   9   7 -13   10.85    3.60
   9   7 -13   10.80    3.44
   9   7 -13   19.61    4.42
   9   7 -12   11.57    4.32
  -9   7  12   20.22    4.94
   9  -7 -11    6.92    4.54
   9   7 -11    2.35    1.81
   9   7 -11    3.56    4.22
  -9   7  11    1.87    2.42
   9  -7 -10   47.47   10.62
   9   7 -10   33.45    8.57
  -9  -7  10   45.94    9.64
  -9   7  10   37.69    7.35
   9   7 -10   68.70   12.74
   9  -7  -9   39.76   10.75
   9   7  -9   35.54    9.75
  -9  -7   9   46.94    9.54
  -9   7   9   31.74    6.57
   9   7  -9   46.74   11.70
  -9   7   9   49.96   10.43
   9  -7  -8    3.07    4.70
   9   7  -8    1.71    4.42
  -9  -7   8    2.82    2.71
  -9   7   8    3.69    3.58
   9   7  -8    5.16    6.56
   9   7  -8    4.69    4.73
  -9   7   8    1.98    3.34
   9  -7  -7    1.03    3.86
   9   7  -7    1.74    2.74
  -9  -7   7   10.62    5.61
  -9   7   7    8.78    4.74
   9   7  -7    5.45    5.98
   9   7  -7    5.09    3.24
  -9   7   7    4.94    5.67
   9  -7  -6   14.18    4.44
   9   7  -6   18.98    7.37
  -9  -7   6   31.10    9.40
  -9   7   6   36.30    8.54
   9   7  -6   39.84   11.79
   9   7  -6   24.06    6.87
  -9   7   6   50.52   14.98
   9  -7  -5   18.63    7.55
   9   7  -5   19.42    6.75
   9   7  -5   18.59    9.56
   9   7  -5   20.56    7.75
  -9  -7   5   20.20    7.30
  -9   7   5   14.85    4.65
   9  -7  -4  169.00   22.00
  -9  -7   4  163.28   21.75
  -9   7   4  170.48   19.45
   9   7  -4  128.45   20.97
   9   7  -4  110.59   16.66
  -9  -7   3   43.47   12.30
  -9   7   3   56.48   12.35
   9   7  -3   44.05   12.91
   9   7  -3   33.20   10.11
   9   7  -3   34.56   11.50
  -9  -7   2  149.51   21.93
  -9   7   2  122.25   17.17
   9   7  -2  127.61   19.65
   9   7  -2  141.14   21.07
  -9  -7   1   17.59    7.51
  -9   7   1   24.55    7.70
   9   7  -1   20.38    8.34
  -9  -7   0   30.98   10.11
  -9   7   0   33.16    9.66
  -9   7   0   55.08   17.97
   9   7   0   28.54    9.78
   9   7   1   32.49    8.55
   9  -7   1   23.18    7.61
  -9  -7  -1   29.03    9.02
  -9   7  -1   38.08    9.62
  -9   7  -1   21.69   11.37
  -9   7  -1   18.14    6.53
   9   7   2  106.39   15.29
   9  -7   2  131.46   18.52
  -9  -7  -2  162.49   21.54
  -9   7  -2  145.96   18.63
  -9   7  -2  101.72   22.18
  -9   7  -2  119.32   24.45
  -9  -7  -3   40.13   11.02
  -9   7  -3   46.27   10.73
   9   7   3   43.93    9.59
   9  -7   3   37.44    9.58
  -9   7  -3   29.45   10.13
  -9   7  -3   36.16   14.38
  -9  -7  -4  132.71   19.71
  -9   7  -4  132.60   18.96
   9   7   4  159.10   18.48
   9  -7   4  180.46   22.55
  -9   7  -4  110.36   20.73
  -9   7  -4  158.57   28.22
   9   7   5   11.69    5.67
   9  -7   5   13.57    7.22
  -9   7  -5   13.26    6.80
  -9   7  -5    9.15    7.22
   9   7   6   25.00    6.86
   9  -7   6   41.26   10.33
  -9   7  -6   35.52   13.15
  -9   7  -6   15.46    7.61
   9   7   7    2.03    2.29
   9  -7   7    4.41    3.79
  -9   7  -7   10.48    8.03
  -9   7  -7   -2.56    8.19
   9   7   8    3.78    3.32
   9  -7   8   11.10    6.23
  -9   7  -8    3.83    5.98
   9   7   9   44.86    8.90
   9  -7   9   44.63   10.81
  -9   7  -9   49.18   14.54
   9   7  10   55.76    9.28
   9  -7  10   50.62   10.73
  -9   7 -10   51.14   14.93
   9   7  11    4.25    3.65
   9  -7  11    3.40    2.64
  -9   7 -11   -5.64    5.33
   9   7  12   26.18    5.86
   9  -7  12   25.08    6.81
  -9   7 -12   33.59   10.83
   9   7  13   12.90    3.94
  -9   7 -13   12.81    5.39
   9   7  14    4.25    1.98
  -9   7 -14    4.86    4.76
   9   8 -14    0.88    1.23
   9   8 -13    4.44    2.14
   9   8 -13   -0.85    1.47
   9   8 -12   22.83    6.17
   9   8 -12   24.40    5.02
   9   8 -11   11.02    5.68
   9   8 -10    2.01    2.75
   9   8 -10    0.78    2.72
   9   8 -10   -0.47    1.82
   9   8  -9   -3.06    5.58
   9   8  -9    4.45    4.50
   9   8  -9   -0.56    2.56
   9   8  -8   30.00    7.86
   9   8  -8   64.08   13.82
   9   8  -8   61.00   10.99
  -9   8   8   61.14   12.54
   9   8  -7   58.64   11.56
   9   8  -7   90.18   14.19
   9   8  -7   76.15   15.26
  -9   8   7   97.61   17.10
   9   8  -6   13.58    6.12
   9   8  -6   27.97    9.55
  -9   8   6   38.07   11.21
   9   8  -5   24.59    6.59
   9   8  -5   20.04    8.56
   9   8  -5   16.86    8.01
  -9   8   5   33.68   13.18
   9   8  -4   96.66   14.30
   9   8  -4   99.34   15.98
   9   8  -4  103.50   19.46
   9   8  -4  136.46   19.93
  -9   8   4  117.78   22.87
   9   8  -3   12.78    5.71
   9   8  -3   20.66    8.57
   9   8  -3    8.93    4.18
   9   8  -3   18.07    6.38
  -9   8   3   18.07   10.06
   9   8  -2   10.29    6.24
   9   8  -2   10.10    5.65
  -9   8   2   14.70    8.07
   9   8  -1   23.29    8.96
   9   8  -1   17.15    7.84
   9   8   0   68.82   14.70
   9   8   0   48.30   12.30
   9   8   1   26.34    9.84
  -9   8  -1   39.56   13.04
  -9   8  -1   27.33    9.95
  -9   8  -2   13.93    8.47
   9   8   2   10.22    6.82
  -9   8  -2    9.04    6.77
  -9   8  -3    9.27    7.85
  -9   8  -3   24.24   10.62
  -9   8  -4  114.12   22.94
  -9   8  -4   98.70   20.04
  -9   8  -5   21.95    8.08
  -9   8  -5   18.23    8.19
  -9   8  -6    2.91    7.92
  -9   8  -6    9.48    4.73
  -9   8  -7   72.88   16.86
  -9   8  -7  100.09   19.86
  -9   8  -8   74.82   15.48
  -9   8  -8   47.40   12.48
  -9   8  -9   -3.26    7.50
  -9   8 -10   -6.13    6.67
  -9   8 -11    8.33    5.25
  -9   8 -12   29.57    8.54
  -9   8 -12   14.18    4.57
  -9   8 -13    4.55    3.57
  -9   8 -14    0.99    2.17
   9   9 -13    7.72    2.79
   9   9 -12    0.42    2.44
   9   9 -11   12.60    3.61
   9   9 -11   21.40    6.22
   9   9 -10   -0.42    1.73
   9   9 -10   -1.39    2.95
   9   9  -9   21.66    7.77
   9   9  -9    8.73    1.92
   9   9  -8   41.76   11.31
   9   9  -8   50.96    9.43
  -9   9   8   61.04   11.53
   9   9  -7   37.13   10.61
   9   9  -7   39.61    9.16
  -9   9   7   31.52    8.97
   9   9  -6  113.43   15.88
   9   9  -6  109.19   18.40
  -9   9   6  125.56   20.15
   9   9  -5   46.69   11.97
   9   9  -5   29.10    8.62
  -9   9   5   55.81   15.25
   9   9  -4    8.55    4.24
   9   9  -4   11.30    6.45
   9   9  -4   13.60    7.28
  -9   9   4    1.41   10.84
   9   9  -3   97.81   15.78
   9   9  -3   74.22   14.27
  -9   9   3  116.98   22.76
   9   9  -2  123.31   18.42
   9   9  -2  115.60   18.36
  -9   9   2  153.70   25.51
   9   9  -1   65.71   15.24
   9   9  -1   61.31   12.48
   9   9  -1   84.25   15.51
   9   9   0   76.05   15.05
   9   9   0   89.04   16.27
   9   9   0   92.32   16.30
   9   9   1   82.91   15.26
   9   9   1   68.54   13.62
  -9   9  -1   87.55   17.39
   9   9   1   55.54   12.73
  -9   9  -1   63.11   15.93
   9   9   2  146.38   20.11
  -9   9  -2  143.16   22.68
   9   9   2  156.69   21.52
  -9   9  -2  107.70   21.36
   9   9   3  106.82   17.10
   9   9   3  115.62   18.05
  -9   9  -3  111.97   20.47
  -9   9  -3   87.71   20.17
   9   9   4   14.20    5.91
  -9   9  -4   -1.37    7.16
  -9   9  -4    3.52    3.58
   9   9   5   48.59   11.08
  -9   9  -5   42.26   13.25
  -9   9  -5   44.99   12.34
   9   9   6  179.66   21.29
  -9   9  -6  149.01   21.48
  -9   9  -6  137.05   21.71
  -9   9  -7   27.95    8.92
   9   9   7   29.34    8.75
  -9   9  -7   30.02   10.45
  -9   9  -8   78.66   14.41
  -9   9  -8   70.10   14.60
  -9   9  -9   26.81    7.44
  -9   9  -9   32.43    9.80
  -9   9 -10    6.80    5.38
  -9   9 -11   34.64    9.44
  -9   9 -11   35.44    7.90
  -9   9 -12    7.05    4.08
  -9   9 -12   13.18    4.01
  -9   9 -13    6.23    3.41
   9  10 -12   13.94    4.03
   9  10 -11    1.42    1.32
   9  10 -11   -1.39    1.59
   9  10 -10   33.11    6.29
   9  10 -10   43.10    9.01
   9  10  -9    1.38    2.27
   9  10  -9    7.59    3.64
   9  10  -8   18.73    6.96
   9  10  -8   19.89    5.46
   9  10  -7   69.06   11.57
   9  10  -7   70.77   13.62
  -9  10   7   73.97   11.97
   9  10  -6   49.09   11.98
   9  10  -6   54.27   10.66
  -9  10   6   50.41   11.30
   9  10  -5    8.55    6.77
   9  10  -5    3.54    2.76
  -9  10   5    2.11    5.37
   9  10  -4   46.09   10.89
   9  10  -4   53.92   11.13
  -9  10   4   48.14   14.14
   9  10  -3    4.63    3.47
   9  10  -3   17.43    8.61
  -9  10   3    2.59    7.02
   9  10  -2  188.62   21.71
   9  10  -2  163.33   20.35
   9  10  -2  206.87   24.79
  -9  10   2  132.69   23.20
   9  10  -1  108.84   16.30
   9  10  -1   94.78   16.65
  -9  10   1   83.98   12.47
   9  10  -1   89.18   15.49
  -9  10   1  121.06   21.49
   9  10   0   31.32   10.10
   9  10   0   33.79    9.63
   9  10   0   29.47    8.39
   9  10   1   99.39   15.37
   9  10   1  111.81   17.34
   9  10   1   89.39   15.27
  -9  10  -1  104.68   20.05
   9  10   2  227.23   23.72
   9  10   2  175.51   21.47
   9  10   2  226.09   25.10
   9  10   3    7.30    4.66
   9  10   3    3.26    3.76
  -9  10  -3   -1.17    4.91
   9  10   4   61.80   12.78
   9  10   4   62.95   12.00
  -9  10  -4   50.79   13.98
  -9  10  -5   19.32    9.18
   9  10   5   -0.81    4.78
   9  10   5   11.79    4.21
  -9  10  -5    3.04    5.63
  -9  10  -6   47.79   11.53
   9  10   6   61.65   11.46
  -9  10  -6   67.40   14.36
  -9  10  -7   79.00   13.85
  -9  10  -7   94.46   16.59
  -9  10  -8   34.11    7.81
  -9  10  -8   14.42    4.59
  -9  10  -9    3.28    2.19
  -9  10  -9    9.32    5.43
  -9  10 -10   49.35   10.53
  -9  10 -10   66.88   11.00
  -9  10 -11   -1.81    3.65
  -9  10 -11    0.84    2.06
   9  10  12   24.91    5.60
  -9  10 -12   14.41    3.38
  -9  10 -12   15.17    4.79
  -9  11  11   30.44    5.66
   9  11 -11   26.02    5.75
   9  11 -10    8.70    3.23
   9  11 -10    9.22    4.26
   9  11  -9   17.23    4.59
   9  11  -9   17.96    6.34
   9  11  -8    4.20    3.38
   9  11  -8   -0.65    2.51
  -9  11   7   29.91    6.55
   9  11  -7   17.51    5.85
   9  11  -7   16.51    4.33
  -9  11   6   -5.55    4.56
   9  11  -6   -1.59    5.08
   9  11  -6   -2.93    2.10
  -9  11   5   27.49    8.38
   9  11  -5   22.67    7.31
   9  11  -4   33.10    8.53
   9  11  -4   33.08    8.34
  -9  11   4   36.50    8.13
  -9  11   4   49.68   12.46
   9  11  -3   65.11   13.22
   9  11  -3   67.18   11.69
  -9  11   3   59.01   10.17
   9  11  -3   77.83   12.91
  -9  11   3   70.65   14.25
   9  11  -2   17.73    7.36
  -9  11   2   33.58    7.97
   9  11  -2   25.96    7.65
   9  11  -2   41.09    9.68
  -9  11   2   25.03    8.33
  -9  11   1   43.25    8.66
   9  11  -1   50.75   11.49
   9  11  -1   27.81    7.25
   9  11  -1   26.49    7.54
  -9  11   1   20.72    8.33
   9  11   0   26.59    8.70
   9  11   0   38.12    8.98
   9  11   0   33.71    8.70
   9  11   1   36.83   10.07
   9  11   1   34.55    8.47
   9  11   1   25.16    7.08
  -9  11  -2   25.38    9.44
   9  11   2   32.46    9.43
   9  11   2   40.12    9.28
   9  11   2   36.40    9.20
  -9  11  -3   76.20   14.77
   9  11   3   95.79   14.34
   9  11   3   98.28   15.46
   9  11   3   74.37   12.79
  -9  11  -4   41.48   10.07
   9  11   4   51.22   10.16
   9  11   4   43.65    9.99
  -9  11  -5   15.87    6.52
   9  11   5   35.18    8.78
  -9  11  -6    0.76    2.32
  -9  11  -7   30.86    8.94
   9  11   7   31.62    8.47
  -9  11  -8    0.55    3.09
   9  11   8    2.06    3.11
  -9  11  -8    5.67    3.69
  -9  11  -8    7.50    4.07
   9  11   9   23.41    5.52
  -9  11  -9   15.24    6.02
  -9  11  -9   11.05    4.72
   9  11  10   13.61    4.47
  -9  11 -10    8.88    4.26
  -9  11 -10   18.39    5.16
  -9  11 -11   51.39    7.00
  -9  11 -11   38.66    7.34
   9  12  -9    4.69    2.56
  -9  12   9    8.33    3.88
   9  12  -9    7.24    3.39
   9  12  -8    3.44    2.44
  -9  12   8    1.84    2.57
   9  12  -8    4.08    3.35
   9  12  -7   15.54    4.40
  -9  12   7   17.04    5.38
   9  12  -7   14.08    5.54
  -9  12   6   22.25    5.11
   9  12  -6   21.30    5.76
  -9  12   6   27.92    6.09
  -9  12   5   39.33    7.97
  -9  12   5   56.14    9.40
   9  12  -5   43.37    8.56
  -9  12   4   23.34    6.63
   9  12  -4   17.59    6.91
  -9  12   4   14.04    4.86
   9  12  -4   11.88    4.22
   9  12  -3  136.75   15.60
   9  12  -3  150.42   16.23
  -9  12   3  154.12   15.13
   9  12  -3  115.12   16.48
  -9  12   3  137.65   14.30
  -9  12   3  146.45   18.60
  -9  12   2   51.47   11.76
   9  12  -2   41.76    9.54
   9  12  -2   51.02    9.61
   9  12  -2   63.36   10.75
  -9  12   2   50.64    8.79
  -9  12   2   79.13   11.64
  -9  12   1   24.97    8.27
   9  12  -1   20.29    6.33
   9  12  -1   29.21    7.41
   9  12  -1   29.76    7.18
  -9  12   1   23.13    5.94
  -9  12   0   -0.82    5.52
   9  12   0    3.12    2.87
   9  12   0    2.45    2.25
   9  12   0   -0.63    3.16
   9  12   1   31.46    8.74
   9  12   1   30.54    7.72
   9  12   1   27.88    7.01
  -9  12  -2   47.22   10.43
   9  12   2   62.72   11.94
   9  12   2   56.15    9.96
   9  12   2   56.84   10.90
   9  12   3  138.40   16.73
   9  12   3  152.19   17.59
  -9  12  -3  132.35   17.02
  -9  12  -4   15.35    5.77
   9  12   4   14.90    6.39
  -9  12  -4   16.12    6.14
   9  12   4   20.81    6.32
  -9  12  -5   42.32    9.33
  -9  12  -5   63.16   11.49
  -9  12  -6   12.33    4.31
   9  12   6   31.21    6.84
  -9  12  -6   30.30    7.86
  -9  12  -7   28.67    6.25
   9  12   7   24.04    6.04
  -9  12  -7   28.48    7.13
  -9  12  -8    0.40    1.35
   9  12   8    4.55    2.79
   9  12   9   13.52    3.59
  -9  12  -9   17.63    4.71
   9  13  -7   -0.34    1.92
  -9  13   7   -4.09    2.16
   9  13  -6   36.07    6.25
  -9  13   6   29.28    6.02
   9  13  -5   12.06    4.06
  -9  13   5   22.52    5.18
   9  13  -5   15.54    5.32
   9  13  -4  108.04   12.21
  -9  13   4  100.75   11.03
   9  13  -4   97.90   13.01
  -9  13   4   95.80   11.17
  -9  13   3    6.28    3.81
   9  13  -3   12.02    4.21
   9  13  -3    2.81    2.04
  -9  13   3   13.77    4.39
   9  13  -3    6.07    3.16
  -9  13   3    6.84    2.52
   9  13  -2   76.20   10.61
   9  13  -2   95.73   11.75
  -9  13   2   90.56   10.23
   9  13  -2   83.11   12.72
  -9  13   2   84.57   10.57
  -9  13   2   90.66   12.60
  -9  13   1    3.03    2.84
   9  13  -1    5.76    3.64
   9  13  -1    8.04    3.35
  -9  13   1    4.16    2.07
   9  13  -1    4.05    1.82
  -9  13   1   -3.45    3.67
  -9  13   0   26.94    7.17
   9  13   0   28.69    6.98
   9  13   0   40.87    7.82
   9  13   0   40.09    7.57
  -9  13   0   36.39    8.34
   9  13   1    9.27    4.34
   9  13   1   13.87    4.81
  -9  13  -1   11.57    4.57
  -9  13  -2   74.62   11.11
   9  13   2   77.18   11.55
   9  13   2  102.73   12.93
  -9  13  -2   96.68   12.89
  -9  13  -3    4.67    3.95
   9  13   3    5.58    3.82
   9  13   3    2.67    1.85
  -9  13  -3    3.30    3.15
   9  13   4  140.17   13.62
   9  13   4  131.21   14.10
  -9  13  -4  134.03   14.45
  -9  13  -4   99.40   12.23
  -9  13  -5   18.67    5.06
   9  13   5   18.53    4.87
   9  13   5   13.97    4.20
  -9  13  -5    8.35    3.43
  -9  13  -6   34.06    6.53
   9  13   6   55.59    7.85
  -9  13  -6   36.47    7.69
   9  13   7    2.10    2.79
  -9  13  -7    3.88    3.43
  -9  13  -7    0.73    1.82
   9  14  -5   26.30    5.07
  -9  14   5   30.04    4.97
   9  14  -5   29.66    5.94
   9  14  -4    3.15    1.97
  -9  14   4    5.36    2.28
   9  14  -4   -1.21    2.87
   9  14  -3   30.50    6.20
  -9  14   3   25.59    4.43
   9  14  -3   36.64    7.06
  -9  14   2    3.81    1.96
   9  14  -2    5.42    3.01
  -9  14   2    1.92    1.33
   9  14  -2   10.46    3.46
   9  14  -2    4.94    2.74
  -9  14   2   -1.06    1.44
  -9  14   1    9.39    3.52
   9  14  -1   13.68    4.15
   9  14  -1   10.91    3.66
   9  14  -1    8.61    3.30
  -9  14   1   10.08    2.79
  -9  14   0   -0.41    2.44
   9  14   0    1.61    1.75
  -9  14   0   -2.59    2.89
  -9  14  -1   10.53    3.53
   9  14   1   10.26    3.83
   9  14   1   14.01    4.15
  -9  14  -1   14.19    4.43
   9  14   2    4.77    2.21
   9  14   2    2.82    2.21
  -9  14  -3   27.06    5.35
   9  14   3   40.49    6.54
   9  14   3   37.09    6.54
  -9  14  -3   39.17    6.75
  -9  14  -4    2.99    1.92
   9  14   4    9.66    3.37
   9  14   4    4.61    2.13
  -9  14  -4    3.88    2.00
   9  14   5   40.03    6.22
   9  14   5   23.55    4.53
  -9  14  -5   29.67    5.46
  10   0 -15   -1.38    1.47
  10   0 -14   17.32    5.14
  10   0 -14    9.57    3.50
  10   0 -13    9.78    5.13
  10   0 -13    8.36    3.87
  10   0 -12   83.12   14.26
  10   0 -12   75.35   12.02
  10   0 -11    9.68    5.39
  10   0 -11    6.11    5.30
  10   0 -10  310.07   30.38
  10   0 -10  297.53   27.58
  10   0  -9   10.16    8.47
  10   0  -9    8.91    5.72
  10   0  -8  165.57   22.77
  10   0  -7    5.37    5.08
 -10   0   7    7.17    7.09
 -10   0   6  203.27   27.44
 -10   0   5   19.42    7.72
 -10   0   4 1272.74   71.07
 -10   0   3   15.99    6.68
 -10   0   2  961.22   60.16
  10   0  -1   11.17    8.00
 -10   0   1    4.64    7.16
  10   0   0  308.16   35.07
 -10   0   0  288.19   31.69
  10   0   1    1.38    6.44
 -10   0  -1    3.47    5.19
  10   0   2  992.02   67.05
 -10   0  -2  862.52   56.75
  10   0   3    8.55    6.71
 -10   0  -3    4.38    3.27
  10   0   4 1390.69   81.55
 -10   0  -4 1132.19   65.16
  10   0   5   33.88   12.97
 -10   0  -5   31.54    9.81
  10   0   6  215.18   30.52
 -10   0  -6  179.98   24.28
  10   0   7    1.37    6.88
  10   0   8  132.29   23.23
  10   0   9    3.78    7.07
  10   0  10  340.64   35.79
  10   0  11   11.09    8.07
  10   0  12  112.42   18.45
  10   0  13   13.86    5.79
  10   0  14   31.92    7.78
  10   0  15   -0.83    1.83
  10  -1 -15    3.48    1.76
  10  -1 -14    4.26    1.83
  10  -1 -14    4.58    2.42
  10  -1 -13   21.02    6.44
  10  -1 -13   17.79    5.47
  10  -1 -12    7.72    3.82
  10  -1 -12   11.02    5.42
  10  -1 -11  143.75   19.79
  10  -1 -11  106.32   15.26
  10  -1 -10   30.30   10.27
  10  -1 -10   11.34    4.81
  10  -1  -9  106.87   18.29
  10  -1  -9  124.19   17.77
  10  -1  -8    9.50    5.85
  10  -1  -7   24.81    8.33
  10   1  -7   29.55    9.64
 -10  -1   7   28.41   11.50
 -10  -1   6   74.30   16.29
 -10  -1   5  365.10   36.59
 -10  -1   4   61.59   14.10
 -10  -1   3  742.96   52.19
 -10  -1   2  225.60   27.79
  10  -1  -1  141.45   22.73
 -10  -1   1  156.02   22.74
  10  -1   0  167.14   25.72
 -10  -1   0  126.35   21.06
  10  -1   1  153.69   24.72
 -10  -1  -1  100.42   18.07
  10  -1   2  261.10   33.05
 -10  -1  -2  238.27   28.64
  10  -1   3  838.01   60.56
 -10  -1  -3  720.55   50.92
  10  -1   4   79.13   18.32
 -10  -1  -4   86.21   16.82
  10  -1   5  338.12   38.59
 -10  -1  -5  268.63   29.47
  10  -1   6   71.60   16.95
 -10  -1  -6   63.13   15.07
  10  -1   7   13.45    7.11
  10  -1   8   11.57    7.49
  10  -1   9  156.15   24.80
  10  -1  10   27.87   10.14
  10  -1  11  146.97   22.35
  10  -1  12   22.88    8.01
  10  -1  13   28.63    8.81
  10  -1  14    2.92    3.12
  10  -1  15    2.91    2.32
  10  -2 -14    7.02    3.35
  10   2 -14    8.65    3.77
  10  -2 -13    3.08    3.83
  10   2 -13   -2.16    2.56
  10  -2 -13    5.11    2.80
  10   2 -13   -0.93    3.03
  10  -2 -12   14.73    6.57
  10   2 -12   17.66    5.86
  10  -2 -12   17.20    5.99
  10   2 -12   12.10    4.71
  10  -2 -11   12.72    6.62
  10   2 -11   18.29    7.26
  10  -2 -11   13.53    5.29
  10   2 -11   16.83    5.98
  10  -2 -10   26.92    9.20
  10   2 -10   34.23   10.00
  10  -2 -10   32.83    8.35
  10   2 -10   23.92    7.67
  10  -2  -9   11.55    6.67
  10   2  -9   -0.93    5.76
  10  -2  -8   15.08    7.34
  10   2  -8    6.73    5.77
  10   2  -8   16.46    7.49
 -10  -2   8    6.31    5.07
 -10   2   8   13.95    7.39
  10  -2  -7   40.46   12.23
  10   2  -7   29.48    9.73
  10   2  -7   20.90    8.33
 -10  -2   7   23.37   11.12
 -10   2   7   24.36    9.07
  10   2  -6    5.02    4.23
 -10  -2   6    1.20    3.47
 -10   2   6    5.67    4.51
 -10  -2   5    9.43    6.53
 -10   2   5    9.57    4.75
 -10  -2   4  106.25   19.66
 -10   2   4   96.49   17.21
 -10  -2   3   34.90    9.48
 -10   2   3   29.78   10.05
 -10  -2   2   23.19    9.59
 -10   2   2   26.44    8.95
  10   2  -1   18.36    8.67
  10  -2  -1   37.00   12.10
 -10  -2   1   20.95   10.24
 -10   2   1    8.25    4.50
  10   2   0   82.59   16.54
  10  -2   0   76.85   16.25
 -10  -2   0   77.47   14.89
 -10   2   0   51.08   12.06
  10   2   1    9.41    6.99
  10  -2   1   17.60   11.43
 -10  -2  -1   18.36    9.48
 -10   2  -1   24.81    8.78
  10   2   2   21.80    9.21
  10  -2   2   54.17   15.05
 -10  -2  -2   27.86   11.05
 -10   2  -2   29.36    9.87
  10   2   3   57.38   15.20
  10  -2   3   46.17   15.00
 -10  -2  -3   35.76   11.41
 -10   2  -3   31.70   10.56
  10   2   4  104.54   20.11
  10  -2   4  114.02   20.66
 -10  -2  -4  114.89   18.65
 -10   2  -4   82.04   15.12
  10   2   5    4.83    3.27
  10  -2   5   17.80    8.18
 -10   2  -5   24.74   12.50
 -10  -2  -5    8.32    3.05
 -10   2  -5   13.31    6.33
  10   2   6   16.80    7.61
  10  -2   6   -1.34    5.33
 -10  -2  -6    8.25    5.85
 -10   2  -6    3.77    3.89
  10   2   7   15.52    8.55
  10  -2   7   47.26   14.99
  10   2   8   22.18    9.43
  10  -2   8   15.08   10.00
  10   2   9    9.01    4.60
  10  -2   9   -1.19    3.21
  10   2  10   37.81   10.94
  10  -2  10   45.85   13.01
  10   2  11   25.91    7.37
  10  -2  11   15.39    7.33
  10   2  12   20.29    6.35
  10  -2  12   18.14    7.43
  10   2  13   -2.60    3.70
  10  -2  13    3.79    2.90
  10   2  14    5.90    2.78
  10  -2  14   15.34    5.49
  10  -3 -14   -0.89    2.56
  10   3 -14    2.98    2.15
 -10  -3  14    4.53    3.58
 -10   3  14    6.03    2.51
  10  -3 -13   10.09    4.65
  10   3 -13    0.99    2.38
 -10   3  13   13.29    4.58
  10  -3 -12    5.31    4.20
  10   3 -12    9.40    4.90
  10  -3 -11   16.38    6.75
  10   3 -11   14.27    6.15
  10  -3 -10    5.05    4.15
  10   3 -10    7.53    5.38
  10  -3  -9   13.89    5.74
  10   3  -9   13.40    6.27
  10   3  -9   19.03    7.64
 -10  -3   9    8.13    6.88
 -10   3   9   16.13    6.83
  10  -3  -8   -3.29    3.59
  10   3  -8   -0.93    4.93
  10   3  -8   10.95    6.20
 -10  -3   8   -7.02    5.88
 -10   3   8   -2.40    3.72
  10  -3  -7   60.87   15.38
  10   3  -7   44.40   11.02
  10   3  -7   66.52   13.13
 -10  -3   7   77.98   17.68
 -10   3   7   70.34   13.26
  10  -3  -6   52.65   13.05
  10   3  -6   38.54   10.18
  10   3  -6   49.14   12.91
 -10  -3   6   58.76   13.62
 -10   3   6   43.54   11.22
 -10  -3   5   17.20    7.62
 -10   3   5   13.23    3.86
 -10  -3   4   12.68    7.38
 -10   3   4   12.76    7.66
 -10  -3   3   27.69   10.34
 -10   3   3   36.67    9.64
 -10  -3   2   24.26    9.52
 -10   3   2   46.41   11.02
  10   3  -1  118.71   18.95
  10  -3  -1  147.77   23.19
 -10   3   1  140.79   20.51
 -10  -3   1  127.75   20.43
  10   3   0   -1.05    3.85
  10  -3   0   12.61    7.79
 -10  -3   0    8.07    3.23
 -10   3   0    8.00    7.18
  10   3   1  111.48   18.54
  10  -3   1  103.41   19.70
 -10  -3  -1  139.25   21.59
 -10   3  -1  110.32   17.96
  10   3   2   32.15    9.91
  10  -3   2   48.25   15.14
 -10  -3  -2   44.81   11.24
 -10   3  -2   34.93   10.58
  10   3   3   56.18   13.78
  10  -3   3   39.11   11.50
 -10  -3  -3   47.89   12.75
 -10   3  -3   36.06   10.13
  10   3   4   10.08    8.22
  10  -3   4   16.07    8.76
 -10   3  -4   17.54   12.08
 -10  -3  -4   11.47    8.26
 -10   3  -4    4.67    3.42
  10   3   5   15.54    8.23
  10  -3   5   22.32    9.42
 -10  -3  -5    6.18    7.58
 -10   3  -5   10.12    4.64
 -10   3  -5   13.64    8.80
  10   3   6   56.17   13.42
  10  -3   6   66.48   16.72
 -10  -3  -6   61.62   13.80
 -10   3  -6   53.28   11.78
 -10   3  -6   24.93   11.98
 -10   3  -6   47.14   13.56
  10   3   7   65.56   14.40
  10  -3   7   76.85   16.87
 -10   3  -7   76.00   20.27
 -10   3  -7  103.47   19.96
  10   3   8   -5.43    7.08
  10  -3   8   -1.20    4.72
 -10   3  -8   12.32    9.55
  10   3   9   16.95    9.16
  10  -3   9   23.72    8.56
 -10   3  -9    8.47    7.46
  10   3  10   27.22    9.30
  10  -3  10   29.36   11.04
  10   3  11   30.78    9.15
  10  -3  11   33.37   11.24
  10   3  12    7.25    5.11
  10  -3  12    5.86    5.25
  10   3  13   14.53    5.24
  10  -3  13    9.07    4.57
  10   3  14    2.62    1.76
  10  -3  14    1.59    2.11
  10  -4 -14   11.84    4.25
  10   4 -14   10.06    3.53
  10  -4 -13   11.83    4.35
  10   4 -13    9.17    4.13
 -10  -4  13   22.39    7.20
 -10   4  13   14.49    3.96
  10  -4 -12   10.53    5.51
  10   4 -12    7.30    4.22
 -10  -4  12    6.26    5.95
 -10   4  12   12.53    4.36
  10  -4 -11    8.70    5.60
  10   4 -11   12.41    5.99
 -10  -4  11   -0.87    4.56
 -10   4  11    4.96    2.59
  10  -4 -10   12.87    7.33
  10   4 -10    1.57    3.47
  10   4 -10    5.05    3.08
 -10  -4  10    6.57    6.03
 -10   4  10    8.51    3.87
  10  -4  -9   42.45   11.92
  10   4  -9   23.75    8.31
  10   4  -9   28.28    8.27
 -10  -4   9   29.53   10.53
 -10   4   9   34.24    8.36
  10  -4  -8   18.59    8.33
  10   4  -8   15.04    7.78
  10   4  -8   12.72    6.29
 -10  -4   8   12.21    7.13
 -10   4   8   13.11    4.97
  10  -4  -7   -3.30    6.67
  10   4  -7    6.32    4.39
  10   4  -7   -0.95    4.02
 -10  -4   7    4.17    4.77
 -10   4   7    5.11    4.15
  10  -4  -6   27.64    8.44
  10   4  -6   29.33    9.05
  10   4  -6   26.61    8.91
 -10  -4   6   22.22    8.79
 -10   4   6   28.51    7.70
  10   4  -5  164.43   22.65
 -10  -4   5  163.63   23.49
 -10   4   5  132.24   18.34
 -10  -4   4  124.54   20.18
 -10   4   4   86.86   14.67
 -10  -4   3    3.34    3.43
 -10   4   3   -0.89    2.82
 -10  -4   2   13.45    4.11
 -10   4   2   11.99    4.37
  10   4  -1   74.12   14.30
 -10  -4   1   93.21   17.69
 -10   4   1   66.54   13.05
  10   4   0  128.74   19.04
  10  -4   0  149.23   23.12
  10   4   0  144.10   20.59
 -10  -4   0  137.92   21.57
 -10   4   0  110.18   17.09
  10   4   1   80.37   15.22
  10  -4   1   99.62   17.85
 -10  -4  -1  104.50   18.11
 -10   4  -1   77.94   14.18
  10   4   2   18.98    6.63
  10  -4   2   23.55    9.30
 -10  -4  -2   13.79    4.00
 -10   4  -2   13.93    7.06
  10   4   3    6.07    4.84
  10  -4   3    9.97    7.11
 -10   4  -3   -3.15    7.98
 -10  -4  -3   -1.04    3.59
 -10   4  -3    2.74    2.82
  10   4   4  102.20   17.32
  10  -4   4  120.90   21.24
 -10   4  -4  105.59   16.91
 -10  -4  -4  104.14   18.34
 -10   4  -4  109.10   21.74
  10   4   5  185.20   23.12
  10  -4   5  197.64   26.40
 -10  -4  -5  153.05   22.61
 -10   4  -5  132.12   19.20
 -10   4  -5  131.50   25.10
 -10   4  -5  197.50   31.66
  10   4   6   31.69    9.91
  10  -4   6   24.51    8.45
 -10   4  -6   40.25   12.76
 -10   4  -6   52.96   16.07
  10   4   7    3.92    4.62
  10  -4   7    5.62    4.54
 -10   4  -7    3.11    6.65
 -10   4  -7    2.67    4.70
  10   4   8   13.55    5.59
  10  -4   8   17.17    8.16
 -10   4  -8   13.91    7.67
  10   4   9   56.82   12.25
  10  -4   9   44.80   11.45
  10   4  10   20.86    6.93
  10  -4  10   18.00    6.52
 -10   4 -10   14.64    8.40
  10   4  11   14.77    5.76
  10  -4  11   10.28    6.08
 -10   4 -11   -2.20    3.25
  10   4  12   15.56    5.89
  10  -4  12   23.01    6.98
  10   4  13   29.00    6.69
  10  -4  13   19.37    5.54
  10   4  14   12.58    3.34
  10  -4  14   17.62    4.98
  10  -5 -13    7.52    3.39
  10   5 -13    7.83    3.52
  10  -5 -12   25.56    7.09
  10   5 -12   16.95    4.69
 -10   5  12   23.83    4.84
  10  -5 -11   52.44   11.02
  10   5 -11   26.67    6.89
 -10   5  11   52.53    8.14
 -10  -5  11   50.78   11.26
  10  -5 -10   -0.91    3.30
  10   5 -10    2.81    3.45
  10   5 -10    1.88    3.07
 -10  -5  10    6.08    4.18
 -10   5  10    3.69    2.77
  10  -5  -9   26.02    8.52
  10   5  -9   34.18    9.02
  10   5  -9   29.72    8.17
 -10  -5   9   34.70    9.31
 -10   5   9   43.07    8.53
  10  -5  -8   80.67   15.99
  10   5  -8   74.79   13.93
  10   5  -8   87.81   14.73
 -10   5   8   84.18   12.05
 -10  -5   8   70.45   13.75
  10  -5  -7    8.47    6.27
  10   5  -7    1.69    4.80
  10   5  -7    1.87    4.41
 -10  -5   7    2.68    2.35
 -10   5   7    5.73    2.60
  10   5  -6    7.69    4.50
  10   5  -6    3.02    5.09
 -10  -5   6   10.22    6.38
 -10   5   6   17.11    5.62
  10  -5  -5  115.10   18.88
  10   5  -5  107.10   16.80
  10   5  -5  120.76   19.87
 -10  -5   5  104.54   17.68
 -10   5   5   81.31   13.55
  10   5  -4  275.10   30.28
 -10  -5   4  301.56   30.49
 -10   5   4  211.24   22.54
 -10  -5   3  312.61   31.01
 -10   5   3  296.82   27.29
  10   5  -2   34.30    9.14
 -10  -5   2   58.23   13.22
 -10   5   2   40.38    9.89
  10   5  -1   19.68    8.91
 -10  -5   1   28.78    9.11
 -10   5   1    5.34    5.32
  10   5   0  316.97   28.76
  10  -5   0  384.28   34.65
  10   5   0  342.48   31.98
 -10  -5   0  374.51   34.07
 -10   5   0  339.26   30.66
  10   5   1   24.98    7.79
  10  -5   1   18.24    7.29
  10   5   1   24.86    9.55
 -10  -5  -1   31.04   11.02
 -10   5  -1   22.15    7.64
  10   5   2   31.50    8.38
  10  -5   2   46.92   12.92
 -10  -5  -2   49.39   13.12
 -10   5  -2   50.09   11.69
  10   5   3  281.84   27.83
  10  -5   3  339.38   33.28
 -10  -5  -3  292.72   29.97
 -10   5  -3  273.54   26.93
 -10   5  -3  242.28   31.76
  10   5   4  264.78   26.73
  10  -5   4  302.23   31.41
 -10  -5  -4  258.42   27.88
 -10   5  -4  238.67   25.46
 -10   5  -4  215.40   30.37
 -10   5  -4  288.58   37.44
  10   5   5  109.18   17.23
  10  -5   5  120.56   19.59
 -10  -5  -5  102.82   18.29
 -10   5  -5   99.03   16.22
 -10   5  -5   75.74   17.56
 -10   5  -5  108.89   22.38
  10   5   6   15.48    7.11
  10  -5   6   23.49    9.32
 -10   5  -6    2.84    7.38
 -10   5  -6   23.71   11.55
  10   5   7    7.59    4.76
  10  -5   7   10.74    5.36
 -10   5  -7   14.29    7.53
 -10   5  -7   -5.78    8.85
  10  -5   8  121.40   18.58
  10   5   8   92.22   14.62
 -10   5  -8   71.66   18.17
  10   5   9   44.69    9.71
  10  -5   9   53.08   10.97
 -10   5  -9   57.26   16.38
  10   5  10    9.33    5.12
  10  -5  10    5.60    3.84
 -10   5 -10    3.93    7.92
  10   5  11   67.85   10.77
  10  -5  11   81.85   13.28
 -10   5 -11   39.41   11.86
  10   5  12   39.94    7.77
  10  -5  12   39.28    8.00
 -10   5 -12   28.05    8.59
  10   5  13    9.05    3.62
  10  -5  13   11.50    4.25
  10  -6 -13    1.89    1.44
  10   6 -13    2.07    1.18
  10   6 -13    3.55    1.87
  10  -6 -12   33.31    6.59
  10   6 -12   18.95    4.36
  10  -6 -11   28.38    7.24
  10   6 -11   16.83    5.16
  10   6 -11   14.16    4.30
 -10  -6  11   13.17    5.61
 -10   6  11   12.96    3.55
  10  -6 -10  111.10   15.43
  10   6 -10   95.12   13.27
 -10  -6  10  124.22   15.64
 -10   6  10  111.01   11.23
  10   6 -10  109.44   14.03
  10  -6  -9   26.07    8.78
  10   6  -9   15.44    4.72
 -10  -6   9   27.29    7.57
 -10   6   9   18.16    4.89
  10   6  -9   16.66    6.30
 -10   6   9   27.78    8.22
  10   6  -8   18.96    6.69
 -10  -6   8   11.08    5.53
 -10   6   8    7.57    3.55
  10   6  -8    6.56    4.35
 -10   6   8    4.44    3.92
  10  -6  -7   22.29    7.52
  10   6  -7   22.05    7.46
 -10  -6   7   14.74    4.99
 -10   6   7    7.41    3.97
  10   6  -7   20.68    7.96
 -10   6   7   13.54    7.71
  10  -6  -6   59.20   13.28
  10   6  -6   47.93   11.20
  10   6  -6   58.12   12.92
 -10  -6   6   49.62   11.24
 -10   6   6   39.14    8.19
  10  -6  -5   39.33   11.37
  10   6  -5   20.97    6.61
  10   6  -5   32.44   11.89
 -10  -6   5   27.69    8.51
 -10   6   5   23.57    6.66
  10  -6  -4  491.72   38.07
  10   6  -4  420.19   32.05
  10   6  -4  396.41   30.94
  10   6  -4  408.19   36.96
 -10  -6   4  513.56   37.78
 -10   6   4  435.60   31.31
  10   6  -3   36.15    8.69
  10   6  -3   43.83   12.39
 -10  -6   3   46.41   11.00
 -10   6   3   41.74    9.32
  10   6  -2  169.85   20.94
 -10  -6   2  190.35   22.90
 -10   6   2  166.09   19.49
  10   6  -1   44.70   10.96
 -10  -6   1   36.71   10.63
 -10   6   1   41.48    9.99
  10   6   0   48.78   11.49
 -10  -6   0   65.97   13.59
 -10   6   0   45.87    9.37
  10   6   1   39.98    8.94
  10  -6   1   38.22   10.50
 -10  -6  -1   39.82   10.19
 -10   6  -1   34.79    9.13
  10   6   1   28.74   10.06
  10   6   2  163.71   19.02
  10  -6   2  194.55   22.87
 -10  -6  -2  172.18   21.96
 -10   6  -2  152.83   19.13
  10   6   2  197.15   24.37
 -10   6  -2  173.80   27.87
  10   6   3   52.91   10.90
  10  -6   3   49.04   12.10
 -10  -6  -3   42.13   10.79
 -10   6  -3   40.82    9.27
 -10   6  -3   52.81   13.54
 -10   6  -3   41.26   11.96
  10   6   4  462.79   32.69
  10  -6   4  493.43   37.57
 -10  -6  -4  443.93   35.87
 -10   6  -4  424.74   33.27
 -10   6  -4  377.24   38.42
 -10   6  -4  390.78   42.69
  10   6   5   21.76    6.99
 -10   6  -5   15.18    5.46
 -10   6  -5    4.42    5.93
  10   6   6   54.96   11.04
  10  -6   6   65.71   13.29
 -10   6  -6   35.59   11.90
 -10   6  -6   49.94   15.54
  10   6   7   18.35    6.09
  10  -6   7   17.35    7.63
 -10   6  -7   12.12    6.15
 -10   6  -7    8.99    6.52
  10   6   8   23.65    6.82
  10  -6   8   21.04    7.58
 -10   6  -8   23.15    9.12
  10   6   9   16.69    5.91
  10  -6   9   32.48    9.23
 -10   6  -9   30.15   11.16
  10   6  10  146.34   14.75
  10  -6  10  138.09   16.50
 -10   6 -10  122.39   20.79
  10   6  11   24.84    5.59
  10  -6  11   29.43    7.07
 -10   6 -11   17.68    8.22
  10   6  12   60.01    8.07
  10  -6  12   60.39    9.16
 -10   6 -12   49.32   10.81
  10   6  13    2.31    1.48
  10  -6  13    5.58    2.49
 -10   6 -13    7.14    3.63
  10   7 -12    6.39    2.31
  10   7 -11   35.96    5.94
  10   7 -11   78.47   10.18
  10   7 -10   23.16    5.44
  10   7 -10   25.63    6.14
  10   7  -9   14.05    4.99
 -10   7   9   24.75    5.30
  10   7  -9   21.88    7.23
  10  -7  -8    8.34    4.79
  10   7  -8   -2.99    2.98
 -10   7   8    1.87    1.28
  10   7  -8    3.88    2.75
 -10   7   8    8.76    4.92
  10  -7  -7   -0.82    3.79
  10   7  -7    3.87    1.63
 -10   7   7    1.68    2.64
  10   7  -7   -0.85    3.28
 -10   7   7   -4.68    5.23
  10  -7  -6   66.95   12.90
  10   7  -6   68.77   11.45
 -10   7   6   58.14    9.10
 -10  -7   6   69.30   11.77
  10   7  -6   79.75   14.73
  10   7  -6   68.35   11.22
 -10   7   6   83.95   16.38
  10  -7  -5  176.21   21.12
  10   7  -5  128.06   16.39
 -10  -7   5  131.87   17.12
 -10   7   5  151.60   15.47
  10   7  -5  137.76   17.13
  10   7  -5  176.57   22.60
 -10   7   5  160.01   25.41
  10  -7  -4    5.77    5.05
  10   7  -4    5.38    4.45
 -10  -7   4    9.57    4.63
 -10   7   4    6.74    3.74
  10   7  -4   -1.97    6.16
  10   7  -4    9.42    4.18
 -10   7   4    8.67    6.66
  10  -7  -3  213.38   22.81
  10   7  -3  181.17   19.39
 -10  -7   3  253.43   24.30
 -10   7   3  204.15   19.32
  10   7  -3  191.16   21.11
  10   7  -3  229.37   26.61
 -10   7   3  259.13   33.85
 -10  -7   2  211.77   22.44
 -10   7   2  144.29   16.41
  10   7  -2  149.68   19.06
  10   7  -2  165.30   22.53
 -10  -7   1   33.39    9.60
 -10   7   1   40.24    8.80
  10   7  -1   27.79    9.39
 -10  -7   0    6.56    3.72
 -10   7   0    2.61    3.00
  10   7   0   -0.90    3.63
 -10   7   0    1.39    5.91
 -10  -7  -1   32.17    8.41
 -10   7  -1   35.24    7.93
  10   7   1   32.47    9.53
 -10   7  -1   25.88   10.07
 -10  -7  -2  177.51   21.05
 -10   7  -2  146.31   17.27
  10   7   2  210.46   24.40
 -10   7  -2  162.52   25.30
  10   7   3  182.45   18.43
  10  -7   3  287.14   25.52
 -10  -7  -3  230.16   23.74
 -10   7  -3  208.36   21.16
  10   7   3  277.64   27.56
 -10   7  -3  196.94   26.00
 -10   7  -3  239.25   31.67
  10   7   4   12.10    5.20
  10  -7   4   12.11    4.87
 -10   7  -4   -1.14    5.92
 -10   7  -4    2.74    7.38
  10   7   5  176.44   17.12
  10  -7   5  200.47   21.20
 -10   7  -5  128.91   21.05
 -10   7  -5  140.56   23.22
  10   7   6   80.60   10.92
  10  -7   6   96.23   14.44
 -10   7  -6   61.25   13.93
 -10   7  -6   82.19   17.19
  10   7   7    2.38    2.78
  10  -7   7   -1.37    2.54
 -10   7  -7    1.11    5.10
 -10   7  -7    4.25    6.88
  10   7   8    1.31    1.75
  10  -7   8    1.28    3.06
 -10   7  -8    4.88    5.28
 -10   7  -8   11.98    6.16
  10   7   9   29.08    5.90
  10  -7   9   21.57    6.24
 -10   7  -9   26.04    9.12
  10   7  10   38.94    6.33
  10  -7  10   43.97    7.95
 -10   7 -10   49.35   12.02
  10   7  11   94.39    9.10
 -10   7 -11  107.46   16.48
 -10   7 -12    8.62    3.77
  10   8 -11   30.68    5.98
  10   8 -10   11.21    4.47
  10   8  -9    5.59    4.08
  10   8  -8   32.69    8.28
 -10   8   8   41.40    8.98
  10   8  -7   28.05    8.71
  10   8  -7   19.69    5.14
 -10   8   7   26.94    7.69
  10   8  -6   -1.06    2.98
  10   8  -6    3.32    3.48
  10   8  -6    3.50    3.24
 -10   8   6    6.74    2.90
  10   8  -5   43.03    8.54
  10   8  -5   40.15   10.39
  10   8  -5   45.34    9.62
 -10   8   5   52.27   13.03
  10   8  -4   11.67    4.22
  10   8  -4   17.21    6.88
  10   8  -4   26.12    7.70
 -10   8   4   27.66    9.96
  10   8  -3   41.34    7.79
  10   8  -3   62.31   12.99
  10   8  -3   52.64   11.14
 -10   8   3   78.65   17.86
  10   8  -2    0.54    2.43
  10   8  -2   10.80    4.62
 -10   8   2   -3.93    7.68
  10   8  -1   36.21    9.48
  10   8   0   75.47   14.26
  10   8   0   58.91   12.42
 -10   8   0   47.50   14.65
  10   8   1   53.68   12.34
  10   8   1   53.20   11.73
 -10   8  -1   46.62   12.33
  10   8   2   -4.31    5.30
  10   8   2    5.09    5.97
 -10   8  -2    2.42    7.60
 -10   8  -3   45.03   11.99
  10   8   3   73.38   13.68
 -10   8  -3   53.42   14.44
  10   8   4   33.41    9.53
 -10   8  -4   17.34    7.26
 -10   8  -4   25.45    8.11
 -10   8  -5   49.81   11.97
 -10   8  -5   46.32   12.88
 -10   8  -6   -1.95    3.56
 -10   8  -6   -3.14    3.52
 -10   8  -7   33.37    9.66
 -10   8  -7   28.50    8.68
  10   8   7   49.26    9.56
 -10   8  -8   42.45    9.62
  10   8   8   66.22   10.67
 -10   8  -8   40.12   10.26
 -10   8  -9   22.11    7.39
 -10   8 -10   15.15    6.65
 -10   8 -11   25.97    7.08
 -10   8 -11   37.69    6.67
  10   9 -10   40.12    7.30
  10   9  -9   25.19    6.82
  10   9  -8    3.12    4.09
  10   9  -8    1.57    1.49
  10   9  -7   88.69   13.54
  10   9  -7  126.37   13.53
 -10   9   7  107.72   13.99
  10   9  -6   37.23   10.17
  10   9  -6   40.69    8.19
 -10   9   6   30.91    8.81
  10   9  -5   18.05    6.65
  10   9  -5   15.34    5.35
 -10   9   5   33.01   10.06
  10   9  -4    8.96    4.67
  10   9  -4   16.50    5.86
 -10   9   4   15.01    6.30
  10   9  -3   10.75    4.61
 -10   9   3    6.85    4.45
  10   9  -2   34.38    8.81
 -10   9   2   31.27    9.88
  10   9  -1  182.45   20.34
  10   9  -1  191.48   21.68
  10   9   0   27.76    8.31
  10   9   0   17.00    5.34
  10   9   1  220.01   22.24
  10   9   1  184.27   21.01
 -10   9  -1  163.18   23.21
  10   9   2   44.66   10.68
  10   9   2   42.42   10.15
 -10   9  -2   34.80   11.45
  10   9   3    6.85    4.42
  10   9   3   10.31    5.10
 -10   9  -3   14.45    8.08
  10   9   4   19.69    7.16
 -10   9  -4   16.32    7.52
  10   9   4   19.39    6.62
 -10   9  -4   12.03    6.62
 -10   9  -5   22.41    8.96
  10   9   5   23.98    5.66
  10   9   5   35.80    8.51
 -10   9  -5   32.43    9.50
 -10   9  -6   46.72   11.54
  10   9   6   48.49    9.48
 -10   9  -6   43.01   10.97
  10   9   6   47.55   10.33
  10   9   7  160.94   17.29
  10   9   7  175.96   17.04
 -10   9  -7  131.83   17.58
 -10   9  -7  139.31   17.27
 -10   9  -8    3.72    2.79
 -10   9  -8   -3.76    5.22
  10   9   8    3.84    3.57
 -10   9  -9   37.49    8.59
  10   9   9   50.14    8.69
 -10   9 -10   49.74    9.55
 -10   9 -10   43.60    7.87
  10  10  -9   24.35    6.05
  10  10  -8   57.01   10.05
  10  10  -8   61.83    8.08
  10  10  -7   -0.59    2.54
  10  10  -7   -0.41    1.72
  10  10  -6   91.85   11.51
  10  10  -6   82.93   13.14
 -10  10   6   99.56   13.09
  10  10  -5   30.20    8.42
  10  10  -5   36.21    7.99
 -10  10   5   19.29    6.50
  10  10  -4    3.96    2.93
 -10  10   4    1.43    2.40
 -10  10   4   10.21    6.86
  10  10  -3   13.11    5.32
 -10  10   3    9.93    4.26
 -10  10   3    3.75    3.45
  10  10  -2   81.50   12.52
 -10  10   2   71.45   10.14
  10  10  -2   88.34   13.86
 -10  10   2   53.32   12.81
  10  10  -1   33.52    9.47
  10  10  -1   24.01    6.28
 -10  10   1   17.33    8.47
  10  10   0  194.74   19.73
  10  10   0  208.60   21.43
  10  10   1   30.14    8.16
  10  10   1   33.27    8.24
 -10  10  -1   17.86    6.63
  10  10   2   91.64   13.16
  10  10   2   90.60   13.77
 -10  10  -3   10.62    5.51
  10  10   3   10.18    5.66
  10  10   3   13.76    5.17
 -10  10  -4    7.00    3.40
  10  10   4    2.95    2.20
 -10  10  -5   32.45    8.37
  10  10   5   45.44    9.11
 -10  10  -5   36.08    8.74
  10  10   5   60.08   10.04
  10  10   6  155.20   15.89
  10  10   6  132.31   14.09
 -10  10  -6  114.56   15.77
 -10  10  -6  104.54   14.14
 -10  10  -7    3.70    3.13
  10  10   7    0.49    2.17
 -10  10  -7    6.63    3.52
 -10  10  -8   74.20   11.30
 -10  10  -9   35.66    7.47
 -10  10  -9   43.02    7.43
  10  11  -8   22.00    4.43
 -10  11   8   36.01    6.22
  10  11  -8   28.48    6.35
  10  11  -7   33.57    5.78
 -10  11   7   34.70    5.88
  10  11  -7   34.65    7.53
  10  11  -6   -0.40    2.66
 -10  11   6    1.49    2.43
  10  11  -6   -2.63    3.50
 -10  11   5   -1.45    2.43
 -10  11   5   -1.88    2.49
  10  11  -5   -2.22    1.73
  10  11  -4   90.87   11.43
 -10  11   4   76.05    9.31
 -10  11   4   78.87   12.11
 -10  11   3    6.17    4.05
 -10  11   3    0.74    2.20
  10  11  -3    7.35    4.60
  10  11  -3    5.07    2.60
 -10  11   2   10.19    4.79
  10  11  -2    8.09    3.54
  10  11  -2   13.61    4.85
 -10  11   1   35.22    9.25
  10  11  -1   39.46    8.45
  10  11  -1   48.44    8.66
  10  11   0   65.13   10.89
  10  11   0   61.04    9.91
 -10  11  -1   35.75    8.77
  10  11   1   48.77    9.50
  10  11   1   55.53    9.21
 -10  11  -2    7.16    4.37
  10  11   2    9.60    4.29
  10  11   2    9.99    3.73
 -10  11  -3    4.94    1.97
  10  11   3    4.55    3.97
  10  11   3   -0.50    2.90
 -10  11  -4   79.87   11.61
  10  11   4   89.25   11.54
  10  11   4   81.14   11.30
 -10  11  -5    5.82    3.93
  10  11   5    9.38    4.12
  10  11   5   -0.45    1.97
 -10  11  -6    6.47    4.53
  10  11   6    1.68    2.21
 -10  11  -7   45.07    7.83
 -10  11  -8   31.13    6.31
 -10  11  -8   29.15    5.51
  10  12  -5    7.74    3.40
 -10  12   5    7.95    2.78
  10  12  -4   30.45    6.13
 -10  12   4   16.71    3.37
  10  12  -4   24.08    5.52
 -10  12   3   42.33    7.98
  10  12  -3   26.76    6.68
  10  12  -3   26.58    5.36
 -10  12   3   29.48    4.94
 -10  12   2    2.06    2.58
  10  12  -2    1.51    1.92
  10  12  -2    3.39    2.79
 -10  12   2    1.06    1.60
 -10  12   1    4.77    2.85
  10  12  -1    2.56    2.79
  10  12  -1   12.95    4.27
 -10  12   1   15.88    4.68
 -10  12   0    2.09    3.16
  10  12   0    0.51    1.96
  10  12   0    3.04    2.37
  10  12   1    3.51    2.89
  10  12   1   14.53    4.70
 -10  12  -1   15.18    5.81
 -10  12  -2    1.90    2.61
  10  12   2    4.76    2.82
  10  12   2    6.56    3.43
 -10  12  -2    0.50    2.42
 -10  12  -3   20.31    5.19
  10  12   3   30.95    6.66
  10  12   3   30.51    5.71
 -10  12  -3   34.44    7.07
 -10  12  -4   24.07    5.09
  10  12   4   28.41    5.52
  10  12   4   40.47    6.50
 -10  12  -4   26.88    6.11
 -10  12  -5   12.49    4.11
  10  13   0    3.62    2.29
  10  13   0    3.99    2.37
 -10  13   0    5.55    2.79
  11   0 -12    5.75    3.93
 -11   0  12    3.77    4.47
  11   0 -11  132.21   16.08
 -11   0  11  137.93   18.18
  11   0 -10    7.16    3.59
 -11   0  10    0.88    3.75
  11   0  -9   94.10   15.05
 -11   0   9  107.59   18.20
  11   0  -8    6.86    5.71
 -11   0   8    7.91    4.26
  11   0  -7   63.94   13.10
 -11   0   7   60.32   13.68
  11   0  -6   10.35    6.98
 -11   0   6   -2.91    8.01
 -11   0   5  371.63   33.94
 -11   0   4    3.78    3.55
 -11   0   3  652.40   44.16
 -11   0   2   11.22    5.65
 -11   0   1  208.78   24.20
  11   0   0    3.24    5.44
 -11   0   0    4.59    3.93
  11   0   1  222.74   26.79
 -11   0  -1  143.52   19.31
  11   0   2    6.60    6.74
 -11   0  -2    6.10    3.88
  11   0   3  788.83   51.72
 -11   0  -3  611.39   41.27
  11   0   4    1.07    4.10
 -11   0  -4    4.13    3.06
  11   0   5  382.44   35.48
 -11   0  -5  335.15   29.73
  11   0   6    4.10    4.72
  11   0   7   65.82   14.16
  11   0   8   -0.96    5.20
  11   0   9  102.77   17.18
  11   0  10    7.64    3.63
  11   0  11  208.23   21.63
  11   0  12   10.78    4.58
  11  -1 -12   57.76    9.52
 -11  -1  12   47.68    9.16
  11  -1 -11   11.23    5.37
 -11  -1  11   -1.57    2.55
  11  -1 -10   95.68   14.68
 -11  -1  10   66.15   14.47
  11  -1  -9   33.63    9.23
 -11  -1   9   37.62   11.56
  11  -1  -8   35.17    9.67
 -11  -1   8   36.51   11.70
  11  -1  -7   22.12    8.54
 -11  -1   7   19.70    7.51
  11  -1  -6   76.58   14.93
  11   1  -6   89.31   14.68
 -11  -1   6   61.65   13.69
  11  -1  -5   12.95    7.29
  11   1  -5   -0.88    4.84
 -11  -1   5    3.96    3.38
 -11  -1   4  595.68   43.31
 -11  -1   3    2.89    3.87
 -11  -1   2  193.56   23.57
 -11  -1   1   12.35    7.02
  11  -1   0   81.47   15.35
 -11  -1   0   64.88   13.17
  11  -1   1    9.96    6.69
 -11  -1  -1   11.74    5.62
  11  -1   2  208.34   26.04
 -11  -1  -2  173.11   21.18
  11  -1   3   15.36    5.81
 -11  -1  -3    3.41    2.39
  11  -1   4  649.68   46.82
 -11  -1  -4  502.83   37.04
  11  -1   5    8.38    3.66
 -11  -1  -5    3.24    4.45
  11  -1   6   76.28   15.69
  11  -1   7    8.85    5.65
  11  -1   8   44.47   11.66
  11  -1   9   27.72    9.21
  11  -1  10  110.23   16.68
  11  -1  11    5.76    4.43
  11  -1  12   86.71   12.08
  11  -2 -12    0.49    2.02
  11   2 -12    3.28    2.43
 -11  -2  12    1.18    2.65
 -11   2  12   -1.84    2.23
  11  -2 -11   37.17    8.36
  11   2 -11   25.28    7.02
 -11  -2  11   42.17   10.09
 -11   2  11   43.11    8.09
  11  -2 -10   12.07    5.80
  11   2 -10    6.30    3.77
 -11  -2  10    5.45    5.15
 -11   2  10   11.10    5.16
  11  -2  -9    8.45    5.10
  11   2  -9   11.31    5.30
 -11  -2   9    9.94    5.60
 -11   2   9    0.67    3.17
  11  -2  -8   17.20    7.08
  11   2  -8   18.30    6.23
 -11  -2   8   21.68    8.56
 -11   2   8   20.79    6.99
  11  -2  -7   19.88    8.18
  11   2  -7   15.24    6.16
  11   2  -7   10.67    4.71
 -11  -2   7    5.15    5.58
 -11   2   7   11.83    4.68
  11  -2  -6   83.12   15.50
  11   2  -6   61.70   12.72
  11   2  -6   67.80   12.72
 -11  -2   6   60.93   14.09
 -11   2   6   67.27   12.65
  11  -2  -5   92.08   16.41
  11   2  -5   71.82   13.33
  11   2  -5   83.12   15.12
 -11  -2   5   89.02   17.01
 -11   2   5   68.52   12.64
 -11  -2   4   73.06   14.53
 -11   2   4   56.40   11.77
 -11  -2   3  147.39   20.78
 -11   2   3  120.85   17.07
 -11  -2   2   97.52   17.02
 -11   2   2   77.23   13.42
 -11  -2   1   15.22    6.67
 -11   2   1   16.97    5.43
 -11  -2   0   46.16   11.07
 -11   2   0   37.02    8.48
 -11  -2  -1    4.49    5.41
 -11   2  -1   15.84    4.56
  11   2   1   15.00    6.41
  11  -2   1   14.31    6.66
 -11  -2  -2   99.78   15.89
 -11   2  -2   82.67   13.42
  11   2   2   99.45   16.17
  11  -2   2  110.39   18.69
 -11  -2  -3  101.83   16.01
 -11   2  -3  122.99   16.87
  11   2   3  136.86   19.30
  11  -2   3  162.30   22.73
 -11  -2  -4   52.93   11.06
 -11   2  -4   49.53   11.00
  11   2   4   54.21   11.99
  11  -2   4   73.49   15.80
 -11  -2  -5   66.54   13.86
 -11   2  -5   55.59   11.35
  11   2   5   72.29   13.82
  11  -2   5   93.94   16.93
  11   2   6   63.94   13.23
  11  -2   6   69.66   14.44
  11   2   7   13.08    6.38
  11  -2   7   20.08    8.30
  11   2   8   30.65    8.88
  11  -2   8   20.99    6.92
  11   2   9    7.34    4.79
  11  -2   9   11.98    5.55
  11   2  10    3.60    3.14
  11  -2  10    4.67    4.08
  11   2  11   48.64    9.65
  11  -2  11   54.70   10.35
  11   2  12    1.41    2.77
  11  -2  12    2.18    2.68
  11  -3 -12    6.96    3.62
  11   3 -12   -0.37    1.83
  11  -3 -11    0.61    2.77
  11   3 -11   -1.43    2.64
 -11  -3  11   -2.07    2.46
 -11   3  11    3.05    2.04
  11  -3 -10   24.85    7.73
  11   3 -10   14.59    5.91
 -11  -3  10   23.44    7.21
 -11   3  10   17.13    4.64
  11  -3  -9    8.54    5.67
  11   3  -9    3.32    3.82
 -11  -3   9   10.66    7.09
 -11   3   9    8.58    4.99
  11  -3  -8  131.82   19.17
  11   3  -8  112.55   15.67
  11   3  -8   87.80   12.93
 -11  -3   8  107.10   18.62
 -11   3   8   93.01   13.29
  11  -3  -7   11.54    7.14
  11   3  -7    5.32    4.34
  11   3  -7    5.03    3.23
 -11  -3   7    9.52    6.00
 -11   3   7    4.42    2.58
  11  -3  -6   21.73    8.99
  11   3  -6    7.88    5.09
  11   3  -6    4.91    4.04
 -11  -3   6   14.27    8.26
 -11   3   6    6.62    4.69
  11   3  -5   13.82    7.40
  11  -3  -5   13.16    5.06
  11   3  -5   12.64    7.24
 -11  -3   5    9.53    4.07
 -11   3   5   12.27    5.43
  11   3  -4    9.78    5.21
 -11  -3   4   -0.95    4.03
 -11   3   4    2.82    3.75
 -11  -3   3   20.86    6.36
 -11   3   3   19.58    6.88
 -11  -3   2    6.60    3.99
 -11   3   2   -2.25    4.09
 -11  -3   1   41.88    9.08
 -11   3   1   40.64    9.40
 -11  -3   0  262.66   26.57
 -11   3   0  216.38   22.10
 -11  -3  -1   43.22   11.03
 -11   3  -1   26.91    8.67
  11   3   1   31.70    9.16
  11  -3   1   45.73   12.40
 -11  -3  -2   -0.86    4.21
 -11   3  -2    4.43    3.81
  11   3   2    2.57    4.07
  11  -3   2   -1.06    6.39
 -11  -3  -3   11.70    4.12
 -11   3  -3   14.62    6.66
  11   3   3   13.60    5.57
  11  -3   3   16.78    7.57
 -11  -3  -4   -0.82    4.63
 -11   3  -4    2.17    3.80
  11   3   4    2.52    3.78
  11  -3   4    8.17    6.65
  11   3   5   16.55    6.29
  11  -3   5   14.79    7.52
 -11   3  -5   15.14    8.69
  11   3   6   12.22    5.59
  11  -3   6   11.34    5.68
 -11   3  -6   15.95    8.68
  11   3   7    8.79    4.04
  11  -3   7    9.00    5.81
  11   3   8  117.81   16.78
  11  -3   8  136.08   18.44
  11   3   9   10.70    4.97
  11  -3   9    8.67    5.76
  11   3  10   21.94    6.74
  11  -3  10   20.56    6.61
  11   3  11   -0.52    1.76
  11  -3  11    1.22    3.23
  11   3  12    3.22    1.84
  11  -3  12    4.39    2.28
  11  -4 -11   18.57    5.86
  11   4 -11   13.60    4.67
 -11  -4  10    4.69    3.87
 -11   4  10    1.83    1.51
  11  -4 -10    7.01    4.34
  11   4 -10   -0.52    2.76
  11  -4  -9    1.64    3.22
  11   4  -9    4.24    3.00
 -11  -4   9    2.20    4.09
 -11   4   9    7.66    3.48
  11   4  -9    5.60    3.80
 -11   4   9    2.69    4.05
  11   4  -8   76.23   12.62
  11  -4  -8   93.68   16.26
  11   4  -8   80.68   12.29
 -11   4   8   77.28   10.87
 -11  -4   8   77.38   13.64
  11  -4  -7   71.83   14.23
  11   4  -7   58.19   11.22
  11   4  -7   40.78    9.12
 -11  -4   7   55.68   11.94
 -11   4   7   54.45    9.34
  11  -4  -6    9.65    5.24
  11   4  -6    3.68    4.46
  11   4  -6    3.25    5.34
 -11  -4   6   10.08    3.30
 -11   4   6    1.72    2.30
  11  -4  -5    2.92    3.54
  11   4  -5   11.31    6.14
  11   4  -5    7.95    4.49
 -11  -4   5   13.78    6.07
 -11   4   5    3.00    2.81
  11  -4  -4  162.99   21.93
  11   4  -4  145.23   17.96
  11   4  -4  152.67   21.13
 -11  -4   4  184.04   21.94
 -11   4   4  113.52   14.72
 -11  -4   3   15.07    6.47
 -11   4   3   20.39    5.81
 -11  -4   2   21.22    7.89
 -11   4   2    7.50    3.96
 -11  -4   1   72.74   13.60
 -11   4   1   76.66   12.41
 -11  -4   0  220.02   23.06
 -11   4   0  189.20   19.77
  11   4   1   92.35   14.20
 -11  -4  -1   93.63   14.77
 -11   4  -1   83.90   12.89
  11   4   2   21.43    6.55
  11  -4   2   22.38    8.74
 -11  -4  -2    9.03    3.68
 -11   4  -2   13.25    5.57
  11   4   2   17.15    6.69
  11   4   3   41.00    9.54
  11  -4   3   39.25   10.60
 -11  -4  -3   28.27    8.26
 -11   4  -3   16.01    6.00
  11   4   3   30.78    8.20
 -11   4  -3   19.27    9.40
 -11  -4  -4  147.72   18.60
 -11   4  -4  113.72   15.36
  11   4   4  139.45   17.52
  11  -4   4  172.18   21.82
  11   4   5   11.07    6.05
  11  -4   5   -0.90    4.07
 -11   4  -5    3.59    4.31
  11   4   6    7.99    3.51
  11  -4   6    9.41    6.94
 -11   4  -6    7.26    3.74
  11   4   7   66.12   11.53
  11  -4   7   63.88   11.80
  11   4   8   96.86   13.73
  11  -4   8  108.13   15.68
  11   4   9    6.56    3.23
  11  -4   9    1.38    2.35
  11   4  10    3.13    2.41
  11  -4  10    7.36    3.85
  11   4  11   14.97    4.33
  11  -4  11   19.09    5.39
  11  -5 -11    1.27    2.41
  11   5 -11    1.93    2.17
  11   5 -10   25.40    5.77
  11  -5 -10   42.25    8.67
  11  -5  -9   30.03    8.88
  11   5  -9   24.97    6.50
 -11  -5   9   29.80    7.61
 -11   5   9   28.18    5.48
  11   5  -9   28.37    6.64
  11  -5  -8   -0.81    3.90
  11   5  -8    5.89    4.65
 -11  -5   8    0.62    2.24
 -11   5   8   -1.53    2.62
  11   5  -8   -3.02    2.25
 -11   5   8    3.59    4.83
  11  -5  -7   60.70   12.83
  11   5  -7   23.56    6.98
 -11  -5   7   47.17    9.99
 -11   5   7   36.94    7.14
  11   5  -7   31.37    8.27
 -11   5   7   47.07   11.34
  11  -5  -6   18.72    8.46
  11   5  -6    5.98    4.03
  11   5  -6    7.78    4.24
 -11  -5   6    7.04    4.54
 -11   5   6    9.06    3.32
  11  -5  -5  132.69   18.51
  11   5  -5  101.99   14.39
  11   5  -5  109.21   16.46
 -11  -5   5  109.00   16.10
 -11   5   5   91.68   12.19
  11  -5  -4  196.62   23.07
  11   5  -4  148.72   17.81
 -11  -5   4  173.57   20.24
 -11   5   4  136.41   15.36
  11   5  -4  168.59   21.31
 -11  -5   3   28.80    8.55
 -11   5   3   39.90    8.48
  11   5  -3   43.46   11.04
 -11  -5   2   98.87   15.04
 -11   5   2   75.98   11.54
  11   5  -2   91.86   16.44
 -11  -5   1  157.49   19.14
 -11   5   1  137.10   15.81
 -11  -5   0   -2.34    5.77
 -11   5   0   -1.87    2.00
  11   5   0    4.46    3.27
 -11  -5  -1  160.97   19.11
 -11   5  -1  108.77   14.38
  11   5   1  153.65   19.04
 -11   5  -1  157.54   23.57
 -11   5  -2   69.70   11.91
 -11  -5  -2   79.93   13.57
  11   5   2   95.24   14.85
 -11   5  -2   89.78   18.64
  11   5   3   31.88    7.58
  11  -5   3   65.38   12.22
 -11  -5  -3   48.83   10.56
 -11   5  -3   39.10    8.27
  11   5   3   40.76   10.28
 -11   5  -3   59.46   13.88
  11   5   4  166.75   18.19
  11  -5   4  200.28   22.00
  11   5   4  204.69   22.27
 -11   5  -4  169.90   24.35
  11   5   5  125.93   15.62
  11  -5   5  135.24   17.78
 -11   5  -5  123.01   20.60
  11   5   6    7.92    4.46
  11  -5   6   17.63    6.67
 -11   5  -6    2.94    4.09
  11   5   7   49.80    9.40
  11  -5   7   40.73    9.48
  11   5   8    5.21    2.90
  11  -5   8    1.28    2.08
  11   5   9   43.00    7.57
  11  -5   9   46.10    8.58
  11   5  10   74.78    9.44
  11  -5  10   71.32   10.81
  11   5  11    4.44    2.53
  11  -5  11    1.62    2.14
  11  -6 -10    0.78    2.29
  11   6 -10    0.30    1.29
  11   6 -10    1.38    1.69
  11  -6  -9   51.17    9.12
  11   6  -9   41.92    7.11
  11   6  -9   65.05    9.67
  11  -6  -8   22.87    6.48
  11   6  -8   19.00    5.31
 -11  -6   8   16.59    5.59
 -11   6   8   26.21    4.79
  11   6  -8   27.10    6.83
 -11   6   8   23.40    6.52
  11  -6  -7   13.88    6.42
  11   6  -7    8.52    3.87
 -11  -6   7    9.93    4.58
 -11   6   7   12.39    3.59
  11   6  -7   11.90    5.65
 -11   6   7    9.00    4.27
  11  -6  -6   71.86   12.69
  11   6  -6   40.88    8.26
 -11  -6   6   69.49   10.56
 -11   6   6   48.48    7.33
  11   6  -6   51.08   10.43
 -11   6   6   65.65   13.45
  11  -6  -5  167.50   20.00
  11   6  -5  124.83   15.13
 -11  -6   5  167.44   17.47
 -11   6   5  127.36   12.79
  11   6  -5  159.89   19.59
 -11   6   5  198.22   24.91
  11  -6  -4   44.75    9.89
  11   6  -4   30.27    7.37
 -11  -6   4   64.99   10.86
 -11   6   4   31.36    6.20
  11   6  -4   34.81    9.36
 -11   6   4   54.99   13.73
  11  -6  -3  410.69   31.35
  11   6  -3  303.05   24.19
 -11  -6   3  387.02   27.67
 -11   6   3  310.85   21.97
  11   6  -3  350.90   30.33
 -11   6   3  383.90   36.33
 -11  -6   2   33.69    7.80
 -11   6   2   34.81    6.99
  11   6  -2   24.84    6.57
  11   6  -2   28.59    9.13
 -11   6   1   69.64   10.38
 -11  -6   1   70.46   11.77
  11   6  -1   75.20   13.60
  11   6  -1   69.24   11.73
 -11   6   1   65.84   14.33
 -11  -6   0  220.00   21.30
 -11   6   0  176.21   17.13
  11   6   0  236.01   22.35
 -11   6   0  198.01   25.80
 -11  -6  -1   80.56   12.73
 -11   6  -1   73.09   11.04
  11   6   1   82.23   13.20
 -11   6  -1   84.18   16.08
 -11  -6  -2   29.87    7.54
 -11   6  -2   19.89    5.69
  11   6   2   26.77    7.87
 -11   6  -2   28.73    9.72
  11   6   3  378.70   29.69
 -11   6  -3  316.56   33.30
  11   6   4   39.74    7.64
  11  -6   4   41.96    9.40
  11   6   4   64.30   13.12
 -11   6  -4   44.29   12.26
  11   6   5  182.59   16.56
  11  -6   5  191.29   19.35
  11   6   5  205.77   21.54
 -11   6  -5  164.22   22.45
  11   6   6   58.01    8.95
  11  -6   6   65.49   10.83
 -11   6  -6   64.10   12.25
  11   6   7   12.57    4.05
  11  -6   7   15.26    4.90
  11   6   8   27.64    5.70
  11  -6   8   32.87    6.98
  11   6   9   77.07    8.90
  11  -6   9   84.21   10.48
  11   6  10    2.68    1.74
  11  -6  10    7.43    2.95
  11   6  10    5.36    2.45
  11   7  -9    2.58    1.60
  11   7  -9    3.84    2.29
  11   7  -8    5.68    2.41
  11   7  -8    8.98    4.02
  11   7  -7   34.21    6.54
  11   7  -7   44.42    9.37
 -11   7   7   47.52    9.80
  11   7  -6    0.87    2.19
  11   7  -6    4.68    4.63
 -11   7   6    3.04    3.12
  11   7  -5    1.86    2.53
  11   7  -5    2.14    3.05
 -11   7   5    3.56    3.18
  11   7  -4  178.86   16.28
  11   7  -4  214.65   22.21
 -11   7   4  248.08   26.81
  11   7  -3    9.64    4.06
 -11   7   3    3.22    2.66
  11   7  -3    3.87    4.01
  11   7  -3    9.48    4.47
 -11   7   3   17.28    8.89
  11   7  -2   43.75    8.03
  11   7  -2   47.78   10.44
  11   7  -2   41.61    8.84
 -11   7   2   38.82    6.95
  11  -7  -1   46.75    9.67
  11   7  -1   38.15    7.24
 -11   7   1   34.29    6.63
  11   7  -1   60.17   11.45
  11   7  -1   43.80    8.92
 -11   7   0   14.55    3.72
  11   7   0   13.71    5.26
 -11   7   0   20.82    8.06
 -11   7  -1   23.31    5.34
  11   7   1   36.97    9.12
 -11   7  -1   29.41    8.39
  11   7   2   47.39    9.91
  11   7   2   48.56   10.08
 -11   7  -2   31.15   10.11
  11   7   3    8.95    3.72
 -11   7  -3    7.81    5.84
  11   7   4  329.03   26.01
 -11   7  -4  200.37   23.87
  11   7   5    9.59    5.88
 -11   7  -5    3.48    2.81
  11   7   6   -0.65    3.69
 -11   7  -6    0.73    3.12
  11   7   7   69.61   11.18
  11   7   7   79.20   11.34
  11   7   8   18.45    4.80
  11   7   8   26.40    6.88
  11   7   9    1.02    1.90
  11   7   9    6.79    3.27
  11   8  -8    0.46    1.75
  11   8  -7   13.37    4.81
  11   8  -6   43.17    9.18
 -11   8   6   41.65    8.42
  11   8  -5    1.89    4.24
 -11   8   5   -1.47    3.51
  11   8  -4    5.94    3.49
  11   8  -4    8.83    3.59
 -11   8   4   13.26    7.06
  11   8  -3    4.07    2.66
  11   8  -3   19.33    5.67
 -11   8   3   17.58    7.84
  11   8  -2   75.33   11.13
  11   8  -2   76.15   12.70
 -11   8   2   77.68   14.58
  11   8  -1   28.40    7.36
  11   8   0   -1.18    4.02
 -11   8   0   -1.73    4.97
  11   8   1   49.97   10.08
  11   8   1   29.51    7.03
 -11   8  -1   35.66    9.80
  11   8   2   82.78   12.67
  11   8   2   76.68   11.89
 -11   8  -2   58.23   12.85
  11   8   3   17.79    5.77
  11   8   3   29.27    7.56
 -11   8  -3   12.23    7.00
  11   8   4   18.70    6.00
  11   8   4   16.96    5.90
 -11   8  -4   10.05    5.64
 -11   8  -5    0.69    3.09
  11   8   5   -1.09    3.16
  11   8   5    2.33    3.13
 -11   8  -6   56.55   10.08
  11   8   6   76.30   11.25
  11   8   6   72.62   10.38
  11   8   7   33.13    6.04
  11   8   7   40.10    7.75
  11   8   8    7.22    2.94
  11   8   8    2.37    2.44
 -11   9   7   18.76    3.99
  11   9  -7   15.55    4.80
  11   9  -6   41.92    8.50
 -11   9   6   41.95    6.19
  11   9  -5   16.69    6.06
  11   9  -5   15.87    4.22
 -11   9   5   19.15    4.57
 -11   9   5   21.45    6.38
  11   9  -4   15.87    6.48
  11   9  -4   13.44    4.14
 -11   9   4   11.39    3.33
 -11   9   4    9.81    5.01
  11   9  -3    8.80    2.77
  11   9  -3   10.31    3.66
 -11   9   3   17.91    6.82
  11   9  -2   26.78    6.32
 -11   9   2   27.34    7.85
  11   9  -1   39.98    8.22
  11   9   0  227.50   19.08
  11   9   0  209.67   19.10
 -11   9   0  191.46   20.56
  11   9   1   46.17    8.88
  11   9   1   41.26    8.37
 -11   9  -1   31.25    8.50
  11   9   2   24.82    6.35
  11   9   2   29.87    7.10
 -11   9  -2   17.27    6.11
 -11   9  -3    7.60    3.82
  11   9   3   16.15    5.90
 -11   9  -4   10.68    4.56
  11   9   4   17.92    5.63
  11   9   4   14.09    5.09
 -11   9  -5   24.16    5.91
  11   9   5   29.67    6.44
  11   9   5   42.32    7.65
  11   9   6   85.51   10.72
  11   9   6   71.76    9.14
  11   9   7   17.86    4.80
  11  10  -4   22.86    5.70
  11  10  -4   28.75    5.50
 -11  10   3    9.32    4.61
  11  10  -3    9.04    3.08
 -11  10   3   11.82    3.11
 -11  10   2    7.74    3.88
  11  10  -2    2.88    2.92
  11  10  -2    8.49    3.65
  11  10  -1  129.84   12.67
  11  10  -1  104.40   12.20
 -11  10   1   98.75   13.12
  11  10   0   99.35   11.30
  11  10   0   91.63   11.37
  11  10   1   95.88   11.80
 -11  10  -1   91.99   12.30
 -11  10  -2   -0.99    2.89
  11  10   2   11.45    4.70
  11  10   2    8.26    3.61
 -11  10  -3    7.47    3.54
  11  10   3    9.07    3.16
  11  10   3   13.01    4.28
  11  10   4   50.21    7.85
  11  10   4   37.89    6.82
  12   0  -9    7.85    4.68
  12   0  -8   44.45    9.68
 -12   0   8   51.15   10.97
  12   0  -7   -0.70    2.42
 -12   0   7   -2.12    2.56
  12   0  -6   11.15    4.80
 -12   0   6    5.74    5.34
  12   0  -5    0.77    4.26
 -12   0   5   -2.83    3.26
  12   0  -4    4.72    3.28
  12   0  -4    6.88    4.21
 -12   0   4    4.85    3.20
 -12   0   3    4.73    3.82
 -12   0   2   67.04   10.88
 -12   0   1   14.08    4.57
 -12   0   0  208.76   19.73
 -12   0  -1   22.10    6.95
 -12   0  -2   67.93   10.86
  12   0   3    0.72    3.56
 -12   0  -3    4.13    4.02
  12   0   4    0.71    2.57
  12   0   5   -0.70    2.89
  12   0   6   11.52    5.65
  12   0   7   -1.30    2.22
  12   0   8   47.01    9.10
  12   0   9   -0.55    2.90
  12  -1  -8    3.38    2.14
 -12  -1   8    3.52    3.82
  12  -1  -7   64.18   12.18
 -12  -1   7   47.75   10.56
  12  -1  -6   24.75    8.72
 -12  -1   6   20.41    7.09
  12  -1  -5   -1.59    3.66
  12   1  -5    4.42    3.85
 -12  -1   5   -4.49    5.00
  12  -1  -4   18.58    6.74
  12   1  -4    6.33    4.69
 -12  -1   4   10.82    4.13
 -12  -1   3   23.07    5.75
 -12  -1   2   94.04   13.35
 -12  -1   1   74.08   11.71
 -12  -1   0    7.70    3.14
 -12  -1  -1   62.64   10.55
 -12  -1  -2   80.95   12.28
 -12  -1  -3   16.19    5.39
  12  -1   3   32.13    8.46
  12  -1   4    8.57    3.45
 -12   1  -4    0.83    3.92
  12  -1   5    1.39    2.41
  12  -1   6   17.49    5.84
  12  -1   7   64.83   11.43
  12  -1   8   15.54    5.44
  12  -2  -8   64.81   12.43
  12   2  -8   46.15    8.81
 -12  -2   8   46.30    9.65
 -12   2   8   44.30    7.70
  12  -2  -7   11.44    5.32
  12   2  -7    7.10    4.09
 -12  -2   7   10.99    5.65
 -12   2   7   15.90    4.97
  12  -2  -6  251.70   24.67
  12   2  -6  208.53   20.30
  12   2  -6  227.04   19.58
 -12  -2   6  220.33   23.38
 -12   2   6  180.82   17.40
  12  -2  -5    9.79    4.84
  12   2  -5   13.02    5.36
  12   2  -5    7.02    3.61
 -12  -2   5   10.34    5.22
 -12   2   5   13.41    4.47
  12  -2  -4   -2.47    4.93
  12   2  -4    1.34    3.53
  12   2  -4    6.37    3.95
 -12  -2   4    4.33    3.89
 -12   2   4    2.70    2.80
  12   2  -3   29.29    7.32
 -12  -2   3   23.82    7.18
 -12   2   3   14.63    3.33
  12   2  -3   26.17    7.75
 -12  -2   2  129.71   16.08
 -12   2   2   92.98   12.40
 -12  -2   1    9.88    4.64
 -12   2   1    4.84    2.36
 -12  -2   0  223.04   20.46
 -12   2   0  168.09   16.60
 -12  -2  -1   10.64    4.99
 -12   2  -1    6.94    2.83
 -12  -2  -2  112.88   14.54
 -12   2  -2   91.08   12.10
 -12  -2  -3   19.24    5.39
 -12   2  -3   21.58    6.20
 -12   2  -3   30.43    8.79
  12   2   4    0.61    3.64
  12  -2   4    4.22    3.15
 -12   2  -4    4.08    3.04
  12   2   5    9.06    4.85
  12  -2   5   16.34    6.25
 -12   2  -5   13.66    5.50
  12   2   6  211.25   19.98
  12  -2   6  238.40   22.01
  12   2   7    6.29    3.79
  12  -2   7   24.72    7.20
  12   2   8   66.75   10.24
  12  -2   8   56.37    9.94
  12  -3  -8   13.68    6.27
  12   3  -8   12.96    4.68
  12   3  -7  204.82   18.97
  12   3  -7  230.71   18.14
 -12  -3   7  237.45   22.48
 -12   3   7  220.53   16.83
  12  -3  -6   24.84    7.92
  12   3  -6   21.85    7.11
  12   3  -6   14.81    5.18
 -12  -3   6    7.36    3.83
 -12   3   6   13.80    4.65
  12  -3  -5  134.87   18.02
  12   3  -5  100.51   13.58
  12   3  -5  103.19   14.17
 -12  -3   5   94.20   13.73
 -12   3   5   86.26   11.41
  12  -3  -4    8.19    3.59
  12   3  -4    6.73    3.85
  12   3  -4   11.12    4.50
 -12  -3   4   12.70    5.51
 -12   3   4    5.12    2.90
  12  -3  -3   53.11   11.04
  12   3  -3   37.92    8.36
 -12  -3   3   43.43    9.23
 -12   3   3   31.61    6.52
  12   3  -3   43.38    9.15
 -12  -3   2   21.93    5.43
 -12   3   2   14.93    4.33
  12   3  -2   26.87    8.00
 -12  -3   1  368.71   26.74
 -12   3   1  299.38   21.71
 -12  -3   0   14.34    5.28
 -12   3   0   10.75    3.88
 -12  -3  -1  343.27   25.43
 -12   3  -1  284.78   21.07
 -12  -3  -2   19.88    5.88
 -12   3  -2    8.88    3.86
 -12   3  -2   17.58    6.80
 -12   3  -3   46.04   10.72
 -12   3  -4   -3.92    5.89
  12   3   5  114.07   13.56
  12  -3   5  104.13   14.12
 -12   3  -5   90.89   13.41
  12   3   6   16.63    5.18
  12  -3   6   24.31    7.01
  12   3   7  289.30   21.47
  12  -3   7  309.44   23.45
  12   3   7  292.88   21.88
  12   3   8   20.74    5.36
  12  -3   8   11.88    4.85
  12   3   8   18.99    5.71
  12  -4  -7   78.28   13.59
  12   4  -7   55.74    9.10
  12   4  -7   62.29    9.45
  12  -4  -6  248.45   24.63
  12   4  -6  167.46   16.64
 -12  -4   6  191.02   18.20
 -12   4   6  154.14   13.01
  12   4  -6  191.92   17.83
 -12   4   6  250.64   22.58
  12  -4  -5   35.54    9.63
  12   4  -5   41.79    8.00
 -12  -4   5   34.61    7.67
 -12   4   5   32.15    6.22
  12   4  -5   38.75    8.87
 -12   4   5   27.62    7.31
  12  -4  -4    3.09    2.78
  12   4  -4   -1.64    1.70
 -12  -4   4    6.32    4.79
 -12   4   4    1.56    1.25
  12   4  -4   10.05    6.03
 -12   4   4   -5.91    6.03
  12  -4  -3  137.38   17.41
  12   4  -3  102.73   12.96
 -12  -4   3   93.74   12.74
 -12   4   3   73.83    9.55
  12   4  -3  114.56   15.44
  12  -4  -2  176.69   19.53
  12   4  -2  124.77   14.62
 -12  -4   2  137.77   15.33
 -12   4   2  109.70   11.86
  12   4  -2  148.17   17.89
 -12   4   2  160.56   20.16
 -12   4   1   53.67    8.42
 -12  -4   1   65.20   10.44
 -12   4   1   83.83   14.76
 -12  -4   0  179.45   17.57
 -12   4   0  154.41   14.45
 -12   4   0  171.32   20.72
 -12  -4  -1   71.71   11.04
 -12   4  -1   52.13    8.25
 -12   4  -1   90.14   14.93
 -12  -4  -2  133.27   14.88
 -12   4  -2  102.13   11.85
 -12   4  -2  122.80   17.47
 -12   4  -3   87.83   14.05
 -12   4  -4   -1.48    4.56
  12   4   5   43.42    8.17
 -12   4  -5   37.38    8.10
  12  -4   6  245.77   20.23
  12   4   6  235.19   19.34
  12   4   7   85.54   10.55
  12  -4   7   97.90   11.97
  12   4   7   95.91   11.90
  12   5  -6   96.82   11.36
  12   5  -6   93.13   12.23
  12  -5  -5    9.40    5.39
  12   5  -5    3.63    3.24
  12   5  -5    8.56    4.24
 -12   5   5    6.16    4.68
  12  -5  -4   35.38    8.58
  12   5  -4   30.09    6.58
 -12  -5   4   32.14    6.88
 -12   5   4   22.19    4.34
  12   5  -4   33.57    8.19
 -12   5   4   21.45    6.75
  12   5  -3   11.44    3.68
  12   5  -3   22.51    7.38
 -12  -5   3   23.32    5.60
 -12   5   3   22.62    4.71
  12   5  -2  161.86   15.48
 -12  -5   2  150.98   14.99
 -12   5   2  146.54   12.64
  12   5  -2  179.74   19.14
  12  -5  -1   42.86    9.88
  12   5  -1   29.19    6.48
 -12  -5   1   26.37    6.17
 -12   5   1   19.68    4.87
  12   5  -1   30.30    7.58
 -12   5   1   28.72    7.49
 -12  -5   0   42.48    7.81
 -12   5   0   34.73    6.20
  12   5   0   50.05   10.33
 -12   5   0   27.76    8.00
 -12  -5  -1   25.56    5.71
 -12   5  -1   23.50    5.02
  12   5   1   36.22    9.27
 -12   5  -1   19.15    6.42
 -12   5  -2  134.71   17.42
  12   5   3   36.38    7.08
 -12   5  -3   27.80    7.77
  12   5   4   30.87    6.47
 -12   5  -4   19.44    5.95
  12   5   5    0.97    2.73
  12   5   6  151.16   14.96
  12   6  -5   37.63    6.34
  12   6  -5   48.32    8.77
  12  -6  -4   42.89    8.38
  12   6  -4   25.75    5.19
  12   6  -4   48.29    8.96
 -12   6   4   48.66    9.64
  12  -6  -3   19.49    6.08
  12   6  -3   13.32    3.83
  12   6  -3   14.86    5.16
 -12   6   3   22.20    7.10
  12  -6  -2  122.33   13.90
  12   6  -2   81.16    9.40
  12   6  -2  103.01   14.18
  12  -6  -1   80.32   11.06
  12   6  -1   49.81    7.60
  12   6  -1   73.48   11.74
 -12   6   1   69.81   11.92
  12   6   0   23.43    5.22
  12  -6   0   31.27    7.05
  12   6   0   24.28    6.75
 -12   6   0   17.65    6.13
 -12   6  -1   52.52   10.68
  12   6   2  105.35   11.57
 -12   6  -2   69.78   11.57
  12   6   3   23.98    6.61
  12   6   3   15.12    4.60
 -12   6  -3   10.18    5.36
  12   6   4   44.89    8.24
  12   6   4   44.10    7.80
  12   6   5   73.56   10.07
  12   6   5   97.65   12.07
  12   7  -3   69.71   10.57
  12   7  -2    3.91    1.97
  12   7  -2    8.09    3.83
  12   7  -1   -1.31    1.87
  12   7  -1   12.50    4.72
  12   7   0   72.83    7.53
 -12   7   0   74.23   11.52
  12   7   1    0.73    1.19
  12   7   1    0.36    1.54
  12   7   2    7.73    2.44
  12   7   2    4.56    2.91
  12   7   2    6.48    2.92
 -12   7  -2   11.02    4.81
  12   7   3   88.79   10.41
  12   7   3   93.20   11.46
   0   0   0    0.00    0.00


TITL IC-217D-Eu in P2(1)/m
REM P2(1)/m (#11 in standard setting)
CELL 1.54184  10.870841  17.056901  19.796273  90.0000  90.0000  90.0000
ZERR    3.00   0.000216   0.000493   0.000917   0.0000   0.0000   0.0000
LATT  1
SYMM -x, y+1/2,-z
SFAC O S Eu U
UNIT 180.00 36.00 12.00 18.00
TREF
HKLF 4
END
_computing_structure_solution     'SHELXT 2018/2 (Sheldrick, 2018)'
;
_shelx_hkl_checksum                22004
_shelx_fab_file
;
-12 0 -8 -3.0263 -4.0270
-12 0 -6 1.3803 1.1644
-12 0 -4 2.3049 3.1700
-12 0 -2 -0.2508 2.3918
-12 0 0 -3.0657 0.0966
-12 0 2 -3.0725 2.8874
-12 0 4 1.7648 1.9574
-12 0 6 -0.9250 1.8631
-12 0 8 -0.8829 -0.8660
-12 1 -8 1.7876 1.6877
-12 1 -7 1.1930 2.1561
-12 1 -6 0.3855 -0.1055
-12 1 -5 -2.4584 -2.1673
-12 1 -4 3.1928 0.4251
-12 1 -3 -0.4281 -1.5891
-12 1 -2 -2.6781 1.3776
-12 1 -1 1.0182 -0.1043
-12 1 0 -1.0193 1.3434
-12 1 1 3.9305 -0.7171
-12 1 2 -1.4107 0.7232
-12 1 3 -0.3117 -1.4621
-12 1 4 -1.9397 1.5171
-12 1 5 -0.1819 -1.0366
-12 1 6 1.8164 0.1515
-12 1 7 0.6133 -0.6482
-12 1 8 0.0235 2.7574
-12 2 -8 -1.1143 -2.5806
-12 2 -7 -0.1883 0.5074
-12 2 -6 1.0716 -0.7393
-12 2 -5 -4.2386 -0.6830
-12 2 -4 0.0013 0.5473
-12 2 -3 -1.4404 -0.6696
-12 2 -2 0.4488 -0.7666
-12 2 -1 5.1952 -1.3892
-12 2 0 -2.5632 -0.3708
-12 2 1 -0.0186 -0.3394
-12 2 2 -0.7931 -0.4461
-12 2 3 4.7967 -1.6433
-12 2 4 0.2046 -0.1816
-12 2 5 -1.0704 0.1666
-12 2 6 -0.7359 -0.1483
-12 2 7 -0.9497 -1.8552
-12 2 8 1.0681 -1.6355
-12 3 -8 0.6663 -0.7914
-12 3 -7 -1.6661 2.0985
-12 3 -6 1.1679 -0.1214
-12 3 -5 1.3616 1.2345
-12 3 -4 6.4433 -0.1203
-12 3 -3 -0.5942 1.2042
-12 3 -2 -3.6681 -0.2540
-12 3 -1 0.5177 1.0335
-12 3 0 -2.0440 -0.4758
-12 3 1 1.3997 1.1331
-12 3 2 -2.7629 -0.0706
-12 3 3 -0.9488 1.6170
-12 3 4 -2.7728 -0.4341
-12 3 5 2.0936 0.9818
-12 3 6 1.9495 -0.5653
-12 3 7 -1.5243 2.3194
-12 3 8 -0.5718 1.9638
-12 4 -7 0.9914 0.3263
-12 4 -6 0.0608 -2.7120
-12 4 -5 -4.8360 0.9245
-12 4 -4 -1.3817 -1.1049
-12 4 -3 -2.8480 1.8040
-12 4 -2 1.8904 -1.1422
-12 4 -1 2.3039 1.5310
-12 4 0 -1.8821 -0.4933
-12 4 1 1.2620 1.3833
-12 4 2 1.1755 -1.9734
-12 4 3 3.4351 1.8173
-12 4 4 -1.6598 -0.9680
-12 4 5 -0.5476 1.8001
-12 4 6 -0.8157 -2.7474
-12 4 7 0.6961 0.2186
-12 5 -6 1.5088 -0.3732
-12 5 -5 1.1546 1.6473
-12 5 -4 4.2196 -2.7723
-12 5 -3 -1.4217 0.2140
-12 5 -2 2.7467 -2.1083
-12 5 -1 -0.0589 -0.1108
-12 5 0 0.1980 -1.1954
-12 5 1 0.6679 0.5149
-12 5 2 -2.6390 -2.2462
-12 5 3 0.0396 0.9190
-12 5 4 -0.4223 -2.9826
-12 5 5 2.4764 1.1558
-12 5 6 -0.3709 -0.8641
-12 6 -5 -2.2787 2.1186
-12 6 -4 0.8016 -0.2943
-12 6 -3 -4.3093 2.4421
-12 6 -2 0.6500 0.9205
-12 6 -1 -5.3717 0.3357
-12 6 0 -0.4993 0.7217
-12 6 1 1.4224 0.1497
-12 6 2 -0.5139 0.1691
-12 6 3 0.9578 3.2175
-12 6 4 -1.8549 -0.3175
-12 6 5 -0.0886 1.1701
-12 7 -3 0.2356 -0.4219
-12 7 -2 7.0910 -0.1958
-12 7 -1 0.3606 -1.2740
-12 7 0 3.3507 2.2043
-12 7 1 -0.0668 -1.0598
-12 7 2 -1.8077 -0.5037
-12 7 3 1.7629 -0.2967
-11 0 -9 -1.4599 -6.1287
-11 0 -7 -4.0048 -6.4894
-11 0 -5 -2.3762 -10.7749
-11 0 -3 -0.7889 -11.8434
-11 0 -1 -4.0141 -12.2253
-11 0 1 -6.4100 -11.6736
-11 0 3 -1.7900 -10.9253
-11 0 5 -1.0289 -10.6538
-11 0 7 -2.7623 -7.5197
-11 0 9 -0.3565 -8.5798
-11 0 11 1.5356 -4.4345
-11 1 -10 -0.2928 0.4109
-11 1 -9 0.0002 1.2905
-11 1 -8 2.3018 5.0400
-11 1 -7 -1.6847 -1.3941
-11 1 -6 3.7112 5.7348
-11 1 -5 1.0788 0.0141
-11 1 -4 1.1789 9.8635
-11 1 -3 -2.6182 -1.1875
-11 1 -2 2.3644 8.5881
-11 1 -1 -2.4268 -0.5080
-11 1 0 6.6185 9.3150
-11 1 1 -0.9631 -1.2545
-11 1 2 4.8019 7.9445
-11 1 3 -1.0771 -0.1475
-11 1 4 1.0564 9.0288
-11 1 5 1.9973 -1.2140
-11 1 6 2.8671 6.1014
-11 1 7 -2.3571 -0.9354
-11 1 8 1.1235 6.4866
-11 1 9 -0.9875 -0.0438
-11 1 10 -0.5673 5.5386
-11 1 11 -1.6994 -2.2225
-11 1 12 -2.4872 1.7976
-11 2 -10 -0.7219 -2.0032
-11 2 -9 0.2098 -1.2019
-11 2 -8 2.5855 0.6862
-11 2 -7 -2.5201 -2.1112
-11 2 -6 -0.0006 -0.2734
-11 2 -5 -3.1310 -4.6803
-11 2 -4 0.0439 0.5009
-11 2 -3 -1.1576 -4.9073
-11 2 -2 6.2282 0.8737
-11 2 -1 -6.4727 -3.8129
-11 2 0 1.1370 1.0841
-11 2 1 -7.3765 -4.2072
-11 2 2 2.9636 0.3784
-11 2 3 -3.1298 -3.9650
-11 2 4 -1.9620 0.0373
-11 2 5 -3.7476 -4.0964
-11 2 6 0.0902 1.3762
-11 2 7 -1.9507 -2.7444
-11 2 8 4.0639 -0.8482
-11 2 9 0.7319 -3.4283
-11 2 10 1.0074 1.8496
-11 2 11 1.4596 -1.7270
-11 2 12 3.6814 2.3426
-11 3 -10 -0.0682 -2.2055
-11 3 -9 -0.5966 0.4232
-11 3 -8 -0.5909 -0.5569
-11 3 -7 -2.6219 0.4292
-11 3 -6 4.0935 0.7493
-11 3 -5 2.3231 0.9565
-11 3 -4 1.5897 0.9643
-11 3 -3 -4.7228 -0.5975
-11 3 -2 4.0615 -0.1802
-11 3 -1 -3.8926 -0.0423
-11 3 0 9.6768 -0.3788
-11 3 1 -1.3824 -0.5177
-11 3 2 4.6003 0.1562
-11 3 3 -1.7210 1.1786
-11 3 4 4.9149 -0.3440
-11 3 5 3.2173 -0.3396
-11 3 6 4.1684 0.9170
-11 3 7 -4.3919 0.6934
-11 3 8 -0.7213 -0.3219
-11 3 9 -1.8158 0.3984
-11 3 10 -1.7755 0.2251
-11 3 11 -3.2925 -2.0527
-11 3 12 -0.9520 0.0664
-11 4 -10 -0.1036 0.8286
-11 4 -9 0.9381 2.6686
-11 4 -8 1.6248 -0.9841
-11 4 -7 -1.9653 0.5365
-11 4 -6 -0.6166 -1.3443
-11 4 -5 -3.7469 1.5945
-11 4 -4 0.1041 -0.2910
-11 4 -3 -0.9952 1.9491
-11 4 -2 4.5427 -0.4932
-11 4 -1 -8.3308 2.7186
-11 4 0 0.6412 -0.5353
-11 4 1 -6.8521 2.0418
-11 4 2 2.5330 -0.7277
-11 4 3 -3.3857 2.5999
-11 4 4 -1.4338 -1.4441
-11 4 5 -6.3484 1.8850
-11 4 6 0.5313 -0.4115
-11 4 7 -1.0405 0.7800
-11 4 8 3.6435 -1.2765
-11 4 9 2.2481 2.4646
-11 4 10 1.4901 0.0248
-11 4 11 1.8179 0.4954
-11 5 -10 1.2868 -1.5905
-11 5 -9 0.1356 -0.1566
-11 5 -8 0.7283 -1.2138
-11 5 -7 0.3732 1.6366
-11 5 -6 3.1034 -1.3054
-11 5 -5 0.8697 -0.0335
-11 5 -4 1.6756 -2.5143
-11 5 -3 -1.2315 0.7479
-11 5 -2 2.9492 -1.9590
-11 5 -1 -0.7760 1.0384
-11 5 0 7.3456 -2.5103
-11 5 1 -1.2034 0.8436
-11 5 2 2.2604 -1.8936
-11 5 3 -1.3173 0.7600
-11 5 4 4.3960 -2.8166
-11 5 5 0.8301 1.2707
-11 5 6 3.6871 -1.2596
-11 5 7 -1.9428 0.3206
-11 5 8 -1.7432 -1.7092
-11 5 9 -2.0867 1.1361
-11 5 10 -2.3812 -1.9947
-11 5 11 -1.4281 0.3120
-11 6 -10 -0.6382 1.6344
-11 6 -9 -3.0309 0.3670
-11 6 -8 -1.1693 -1.0057
-11 6 -7 -0.8033 0.7772
-11 6 -6 -1.2654 0.4869
-11 6 -5 -1.6419 1.1647
-11 6 -4 -0.5408 0.1703
-11 6 -3 -1.2387 0.6822
-11 6 -2 -0.8237 -0.9429
-11 6 -1 -2.3887 0.8534
-11 6 0 0.2928 -0.9398
-11 6 1 -2.7530 0.9747
-11 6 2 1.6277 -0.1170
-11 6 3 -0.7373 0.6247
-11 6 4 1.0290 -0.0845
-11 6 5 -3.5995 1.1862
-11 6 6 -0.3172 -0.4674
-11 6 7 0.4969 0.4133
-11 6 8 1.6296 0.1267
-11 6 9 2.3778 1.2166
-11 6 10 1.6178 -0.8744
-11 7 -9 0.7222 -0.4583
-11 7 -8 2.5240 -0.2887
-11 7 -7 1.1819 -0.6548
-11 7 -6 -1.8784 -0.1506
-11 7 -5 2.1543 -1.2051
-11 7 -4 1.6574 1.1902
-11 7 -3 1.3384 0.2147
-11 7 -2 -0.6418 0.4693
-11 7 -1 0.7729 0.5939
-11 7 0 -0.3230 -0.0398
-11 7 1 -0.6976 0.4232
-11 7 2 0.1041 0.4485
-11 7 3 -1.8973 -1.1159
-11 7 4 0.6268 1.1246
-11 7 5 -0.3973 -0.3437
-11 7 6 0.7243 0.4114
-11 7 7 0.7742 -0.4161
-11 7 8 -3.1265 0.0726
-11 7 9 -2.4966 -0.5396
-11 8 -8 1.3521 1.5773
-11 8 -7 1.3131 0.2857
-11 8 -6 -2.6679 1.0969
-11 8 -5 1.9759 -2.4006
-11 8 -4 -2.8612 0.4546
-11 8 -3 -0.6054 -1.6339
-11 8 -2 0.1435 -0.1642
-11 8 -1 3.3214 0.0979
-11 8 0 -0.6318 -0.6991
-11 8 1 0.8729 0.0981
-11 8 2 0.7959 0.4561
-11 8 3 0.6881 -1.4877
-11 8 4 1.4284 1.1392
-11 8 5 -0.5344 -2.5677
-11 8 6 -1.3966 0.3685
-11 8 7 2.6295 -0.7138
-11 8 8 1.0959 1.3464
-11 9 -7 -1.1876 -1.6004
-11 9 -6 -2.6035 1.9996
-11 9 -5 4.6457 0.3033
-11 9 -4 -1.3481 2.6376
-11 9 -3 -0.1230 -0.0971
-11 9 -2 -1.7209 -0.3886
-11 9 -1 -0.6085 0.9390
-11 9 0 -2.6055 -1.3834
-11 9 1 1.4566 0.6528
-11 9 2 -0.5107 -0.5569
-11 9 3 -0.8517 -0.1940
-11 9 4 -0.1826 2.6196
-11 9 5 0.9024 0.0034
-11 9 6 -0.5239 2.4659
-11 9 7 0.2239 -1.1552
-11 10 -4 -2.1170 -1.0047
-11 10 -3 1.7564 0.0457
-11 10 -2 2.4012 -0.8516
-11 10 -1 1.2866 2.2353
-11 10 0 -1.5130 -1.6638
-11 10 1 0.6764 2.4903
-11 10 2 -1.0319 -0.9122
-11 10 3 0.1679 0.0304
-11 10 4 -0.8057 -1.3722
-10 0 -8 3.9597 3.9513
-10 0 -6 -2.6803 12.1378
-10 0 -4 1.9151 13.9407
-10 0 -2 0.7296 13.7986
-10 0 0 -2.4707 14.7162
-10 0 2 -1.6355 13.5931
-10 0 4 1.4628 12.1527
-10 0 6 2.3473 12.1206
-10 0 8 -2.2097 8.0887
-10 0 10 0.2172 8.1221
-10 0 12 0.3593 5.0149
-10 0 14 5.2066 4.5398
-10 1 -9 -4.6251 3.9894
-10 1 -8 0.1676 -1.0344
-10 1 -7 -0.2044 -7.7314
-10 1 -6 0.2788 -0.3412
-10 1 -5 1.6743 -10.0387
-10 1 -4 -0.8101 -0.2614
-10 1 -3 -1.7143 -11.3481
-10 1 -2 0.0727 0.0517
-10 1 -1 1.7261 -11.1391
-10 1 0 -5.0896 -0.8132
-10 1 1 1.8452 -11.2958
-10 1 2 -0.1125 0.7000
-10 1 3 0.9275 -9.7571
-10 1 4 4.2189 -1.1278
-10 1 5 -2.8006 -9.9608
-10 1 6 -0.2112 0.2289
-10 1 7 0.1994 -8.1309
-10 1 8 1.6904 -0.0816
-10 1 9 0.8168 -6.4858
-10 1 10 0.2774 -0.1488
-10 1 11 0.0072 -5.4199
-10 1 12 -0.4555 0.7370
-10 1 13 -1.9575 -3.5484
-10 1 14 -0.1332 -1.7614
-10 1 15 -4.4291 -1.7613
-10 2 -9 -0.0602 1.5523
-10 2 -8 2.6231 0.9805
-10 2 -7 -0.6067 0.9780
-10 2 -6 -1.8568 5.3654
-10 2 -5 0.4024 0.5343
-10 2 -4 -1.4598 5.4503
-10 2 -3 0.4796 -0.1450
-10 2 -2 -1.2032 7.0202
-10 2 -1 4.5954 0.8262
-10 2 0 -1.1142 5.6029
-10 2 1 7.9875 0.0603
-10 2 2 -1.4693 5.7168
-10 2 3 -5.7914 0.2218
-10 2 4 -0.0803 5.5249
-10 2 5 -2.4533 1.4665
-10 2 6 1.6585 4.6780
-10 2 7 -0.4426 -0.7285
-10 2 8 -0.0355 4.8346
-10 2 9 -2.2804 1.4946
-10 2 10 0.1951 3.2101
-10 2 11 1.3315 -0.7036
-10 2 12 -0.9435 2.5263
-10 2 13 0.0637 0.4239
-10 2 14 3.1170 1.1198
-10 3 -9 -1.4112 2.7840
-10 3 -8 -1.7307 -1.4586
-10 3 -7 0.5384 -0.7913
-10 3 -6 1.3327 -0.3846
-10 3 -5 2.5203 -0.7810
-10 3 -4 -0.9777 -0.2721
-10 3 -3 2.9064 -1.4886
-10 3 -2 -2.5935 -0.2154
-10 3 -1 0.6295 -1.7130
-10 3 0 -10.8645 -0.5999
-10 3 1 -0.9257 0.2128
-10 3 2 -2.5689 -0.0741
-10 3 3 1.8960 -2.0226
-10 3 4 6.0967 -1.1936
-10 3 5 0.3869 -0.0223
-10 3 6 -1.0460 -0.4329
-10 3 7 -1.2853 -1.4212
-10 3 8 2.1496 -0.6794
-10 3 9 -1.3287 -1.5862
-10 3 10 -0.7367 -0.8300
-10 3 11 1.2697 0.0348
-10 3 12 -1.1243 0.4494
-10 3 13 0.2919 -0.5763
-10 3 14 0.0851 -0.8945
-10 4 -9 0.7494 0.3280
-10 4 -8 -0.8142 -2.0533
-10 4 -7 1.6539 0.4556
-10 4 -6 -2.5189 -1.2737
-10 4 -5 -1.0691 -0.1034
-10 4 -4 -2.2997 -1.9875
-10 4 -3 1.7525 0.3306
-10 4 -2 -1.6191 -1.2975
-10 4 -1 8.0642 0.0165
-10 4 0 3.3957 -2.8969
-10 4 1 9.6529 0.3890
-10 4 2 1.0379 -2.1766
-10 4 3 -2.3167 0.4858
-10 4 4 -3.2078 -1.2529
-10 4 5 -0.5356 0.4075
-10 4 6 -0.2105 -2.5284
-10 4 7 0.9170 0.9589
-10 4 8 2.2081 -0.0209
-10 4 9 -0.1488 0.3012
-10 4 10 0.4844 -1.6730
-10 4 11 2.2031 0.2739
-10 4 12 -1.8594 -0.6131
-10 4 13 -0.1890 0.1633
-10 4 14 1.6387 -1.6868
-10 5 -9 0.6573 1.1181
-10 5 -8 -3.0260 0.7106
-10 5 -7 2.9221 2.1564
-10 5 -6 -1.5638 -0.0822
-10 5 -5 2.1224 1.8344
-10 5 -4 1.0624 0.3980
-10 5 -3 -0.2803 2.7395
-10 5 -2 -4.6031 -0.2189
-10 5 -1 -3.1102 2.9737
-10 5 0 -9.8977 0.3598
-10 5 1 -5.3330 3.7474
-10 5 2 -3.0499 -0.6088
-10 5 3 1.5241 2.3406
-10 5 4 0.0850 0.6323
-10 5 5 3.0365 2.2279
-10 5 6 -2.1237 -0.7272
-10 5 7 -1.0992 2.0504
-10 5 8 -1.5194 -0.0185
-10 5 9 -1.7957 1.9794
-10 5 10 -1.9586 0.2608
-10 5 11 0.7278 1.5471
-10 5 12 -0.6575 -0.3911
-10 5 13 -0.3687 1.2180
-10 6 -9 1.9776 -1.4895
-10 6 -8 -0.9244 -0.9727
-10 6 -7 4.2748 -0.3291
-10 6 -6 -3.2969 -1.0602
-10 6 -5 0.5934 -0.4033
-10 6 -4 0.7116 -1.4341
-10 6 -3 -0.8554 -0.3763
-10 6 -2 5.2125 -2.3904
-10 6 -1 7.4361 -0.0754
-10 6 0 5.2160 -2.3486
-10 6 1 4.1277 -0.1208
-10 6 2 2.7564 -2.7752
-10 6 3 0.8143 -0.4250
-10 6 4 -2.7058 -1.2415
-10 6 5 2.5539 -0.6394
-10 6 6 -0.6180 -0.8662
-10 6 7 2.3927 -0.0725
-10 6 8 1.3299 -2.2933
-10 6 9 3.1292 -1.0553
-10 6 10 0.4990 -1.3903
-10 6 11 0.3441 0.4112
-10 6 12 0.6144 -0.8927
-10 6 13 -0.3087 -0.5972
-10 7 -9 2.1448 -0.3944
-10 7 -8 -4.4009 1.0637
-10 7 -7 0.2383 -0.2998
-10 7 -6 -3.4887 0.0331
-10 7 -5 2.7007 0.3077
-10 7 -4 1.8366 0.7495
-10 7 -3 -6.1782 0.7306
-10 7 -2 -1.4889 0.0267
-10 7 -1 -6.0900 0.8769
-10 7 0 -4.3506 -0.0288
-10 7 1 -1.8912 1.1337
-10 7 2 1.2144 0.5003
-10 7 3 -0.8320 1.3293
-10 7 4 -2.1430 0.7126
-10 7 5 0.5717 -0.8148
-10 7 6 -1.8558 0.7552
-10 7 7 -1.2984 0.8581
-10 7 8 -3.7213 1.2580
-10 7 9 0.1136 0.9152
-10 7 10 -1.2091 -0.0475
-10 7 11 -1.1763 0.4852
-10 7 12 0.9093 0.4246
-10 8 -9 6.6317 -0.2052
-10 8 -8 -0.0757 1.5150
-10 8 -7 3.6549 -0.2438
-10 8 -6 -1.3086 0.4250
-10 8 -5 0.3538 -0.2576
-10 8 -4 0.9979 0.1594
-10 8 -3 -1.9101 -0.3453
-10 8 -2 8.0735 0.4244
-10 8 -1 1.7978 0.4231
-10 8 0 0.0251 0.4417
-10 8 1 -1.0826 -0.1176
-10 8 2 0.0201 -0.4396
-10 8 3 -1.5828 -0.5362
-10 8 4 2.2507 0.6928
-10 8 5 1.4471 -0.5575
-10 8 6 2.0804 0.6973
-10 8 7 1.9392 -0.9965
-10 8 8 0.4496 0.1045
-10 8 9 2.7166 -0.1919
-10 8 10 -0.3743 0.5021
-10 8 11 -1.1736 -0.0264
-10 9 -9 1.9695 -1.6065
-10 9 -8 -6.2673 -0.6366
-10 9 -7 0.5195 -0.9947
-10 9 -6 -0.3553 0.1218
-10 9 -5 0.9534 -0.3213
-10 9 -4 0.9169 0.0276
-10 9 -3 -4.2861 -0.9684
-10 9 -2 1.1326 -0.1182
-10 9 -1 -1.9083 -1.2449
-10 9 0 -0.0012 -0.4243
-10 9 1 3.8900 -0.7609
-10 9 2 2.9179 0.1115
-10 9 3 -2.7015 -0.7101
-10 9 4 1.2953 0.3870
-10 9 5 -4.0143 -1.0515
-10 9 6 -0.9306 0.1206
-10 9 7 -1.8210 -0.5206
-10 9 8 -1.6954 -0.5659
-10 9 9 0.8403 -1.5977
-10 9 10 -0.1047 0.1437
-10 10 -9 4.9225 1.1099
-10 10 -8 -2.6420 0.9942
-10 10 -7 2.3611 0.8112
-10 10 -6 -1.2385 0.2298
-10 10 -5 -0.5020 0.1175
-10 10 -4 1.1437 1.2359
-10 10 -3 -1.1040 -0.0066
-10 10 -2 1.4474 1.3293
-10 10 -1 -0.2881 0.0064
-10 10 0 -3.5938 1.3300
-10 10 1 -0.3355 0.2899
-10 10 2 -0.9732 1.1908
-10 10 3 -3.0332 -0.2202
-10 10 4 5.4853 1.4110
-10 10 5 -0.5399 -0.1110
-10 10 6 2.5058 0.7986
-10 10 7 0.9814 1.8324
-10 10 8 0.2002 1.0439
-10 10 9 -0.1261 0.6849
-10 11 -8 -1.9931 -1.5398
-10 11 -7 3.3431 0.2156
-10 11 -6 -1.2558 -0.8884
-10 11 -5 0.1753 -1.2175
-10 11 -4 0.5269 0.1665
-10 11 -3 -0.3411 -1.7307
-10 11 -2 0.5682 0.6197
-10 11 -1 1.9993 -1.0085
-10 11 0 -1.8265 0.2490
-10 11 1 2.5523 -1.4433
-10 11 2 0.6024 0.1537
-10 11 3 -3.6565 -1.6755
-10 11 4 2.0188 0.4098
-10 11 5 -3.7049 -1.7770
-10 11 6 -0.6606 -1.3208
-10 11 7 0.4463 -0.5738
-10 11 8 0.1224 -2.2112
-10 12 -5 1.5453 0.2932
-10 12 -4 -0.3543 2.1852
-10 12 -3 -0.9819 -1.1436
-10 12 -2 -0.5702 1.0526
-10 12 -1 1.9328 -1.0157
-10 12 0 -1.6203 0.7562
-10 12 1 2.3579 -0.7291
-10 12 2 1.3254 1.5697
-10 12 3 -0.5011 -0.6982
-10 12 4 3.8790 2.0845
-10 12 5 -0.5031 0.3148
-10 13 0 -2.8945 1.0829
-9 0 -7 -8.5597 -3.9995
-9 0 -5 -0.2884 -2.2206
-9 0 -3 0.4635 -4.0709
-9 0 -1 -3.5880 -6.7547
-9 0 1 -3.3601 -2.6460
-9 0 3 -2.2903 -5.6092
-9 0 5 1.9353 -2.2942
-9 0 7 0.3211 -3.9404
-9 0 9 -1.8696 -2.3974
-9 0 11 -4.2908 -1.3130
-9 0 13 -6.2858 -1.1656
-9 0 15 -1.5149 -0.3832
-9 0 17 -5.9581 -0.7637
-9 1 -8 5.1802 -0.2194
-9 1 -7 0.0938 0.5965
-9 1 -6 4.1225 3.3962
-9 1 -5 -2.7448 -1.6637
-9 1 -4 -0.5746 0.9793
-9 1 -3 3.1769 1.0637
-9 1 -2 1.9305 5.3741
-9 1 -1 -1.0471 -2.1037
-9 1 0 3.6708 3.1688
-9 1 1 -0.2240 -0.1737
-9 1 2 3.2743 3.0544
-9 1 3 -0.3043 -0.3780
-9 1 4 0.1984 3.1025
-9 1 5 -6.7110 -1.6014
-9 1 6 -2.5028 1.8176
-9 1 7 -0.6484 0.4754
-9 1 8 1.0668 2.9413
-9 1 9 -0.3604 -1.9438
-9 1 10 2.2629 0.5921
-9 1 11 1.1779 0.1364
-9 1 12 5.9358 1.4434
-9 1 13 -1.4074 -0.3636
-9 1 14 2.9053 0.3651
-9 1 15 -2.8740 -1.2051
-9 1 16 3.3517 1.1390
-9 1 17 0.6376 -0.3653
-9 2 -8 -3.7807 -1.7096
-9 2 -7 -1.6098 -0.6529
-9 2 -6 3.7547 0.7186
-9 2 -5 -1.8468 -1.1419
-9 2 -4 -0.1224 -0.6718
-9 2 -3 -2.1474 -1.0542
-9 2 -2 -2.5349 -0.8364
-9 2 -1 -2.3077 -2.1208
-9 2 0 4.4469 1.6943
-9 2 1 -3.8995 -0.7633
-9 2 2 -1.5971 -1.7681
-9 2 3 -2.5121 -0.6462
-9 2 4 7.3997 1.5953
-9 2 5 2.0721 -1.1458
-9 2 6 7.0573 -1.4977
-9 2 7 2.1154 -0.8317
-9 2 8 -0.9650 0.3810
-9 2 9 -1.6214 -0.1396
-9 2 10 0.8068 1.1003
-9 2 11 -3.2503 -0.4051
-9 2 12 -1.6021 -0.9386
-9 2 13 -3.2386 -0.3907
-9 2 14 6.0097 0.9793
-9 2 15 -1.6322 -0.6559
-9 2 16 0.9088 0.4105
-9 3 -8 0.0248 -1.2949
-9 3 -7 0.0398 0.9749
-9 3 -6 -1.4895 -0.2745
-9 3 -5 -3.0913 -0.4531
-9 3 -4 4.6106 0.4308
-9 3 -3 1.5500 1.6633
-9 3 -2 2.7802 -1.2676
-9 3 -1 -3.9057 -0.5507
-9 3 0 1.8097 -0.2695
-9 3 1 -3.8660 0.6004
-9 3 2 4.3687 -1.9712
-9 3 3 -1.5327 0.5053
-9 3 4 0.9540 -0.8060
-9 3 5 -11.1006 0.1885
-9 3 6 -3.4852 0.5657
-9 3 7 -1.2241 1.7352
-9 3 8 -0.9249 -1.7009
-9 3 9 -0.7369 -1.0987
-9 3 10 2.5902 -0.0824
-9 3 11 0.3675 0.7245
-9 3 12 1.0877 -0.4899
-9 3 13 -2.4504 0.0481
-9 3 14 -0.0377 0.3970
-9 3 15 -5.6750 -0.1828
-9 3 16 1.9647 0.4286
-9 4 -8 2.0465 -0.1736
-9 4 -7 2.8601 1.3681
-9 4 -6 0.6583 -0.1094
-9 4 -5 -0.6356 0.1431
-9 4 -4 1.0653 -0.1325
-9 4 -3 -6.3156 1.0699
-9 4 -2 3.4422 -0.4126
-9 4 -1 -0.9906 2.3641
-9 4 0 7.7294 -0.1621
-9 4 1 -1.9033 1.5988
-9 4 2 2.3059 -0.3621
-9 4 3 -4.8657 3.1689
-9 4 4 6.2004 -0.5549
-9 4 5 1.2982 -0.4888
-9 4 6 6.3458 -0.6670
-9 4 7 2.7170 1.3397
-9 4 8 -0.5816 -0.3572
-9 4 9 -1.0464 1.1189
-9 4 10 2.0532 -0.0827
-9 4 11 -1.3816 0.5526
-9 4 12 0.5402 -0.3945
-9 4 13 3.2025 0.5296
-9 4 14 4.6799 -0.1679
-9 4 15 0.4394 -0.6428
-9 4 16 1.2354 -0.3657
-9 5 -8 -0.1875 -0.5509
-9 5 -7 -3.7102 -0.7422
-9 5 -6 -1.6355 -0.9403
-9 5 -5 1.7863 0.1632
-9 5 -4 2.7769 -0.0490
-9 5 -3 -3.2408 -0.8337
-9 5 -2 4.9593 -1.6377
-9 5 -1 -8.9197 0.5824
-9 5 0 -1.1263 -1.6398
-9 5 1 -5.5294 -0.3061
-9 5 2 3.8042 -2.0502
-9 5 3 -3.2011 0.2757
-9 5 4 3.1233 -0.9671
-9 5 5 -5.5606 0.2347
-9 5 6 -1.8929 0.2898
-9 5 7 -2.3150 -0.4770
-9 5 8 -0.2359 -0.7794
-9 5 9 -0.8658 0.6312
-9 5 10 1.3220 -0.3603
-9 5 11 -2.3377 -0.3000
-9 5 12 -2.3581 -1.0969
-9 5 13 -2.1599 0.3890
-9 5 14 -4.8363 0.5902
-9 5 15 -1.3411 0.5503
-9 5 16 1.0009 -0.0687
-9 6 -8 4.9318 0.7361
-9 6 -7 -0.9305 0.1831
-9 6 -6 1.1105 0.5202
-9 6 -5 0.2198 0.2020
-9 6 -4 -2.9161 0.5424
-9 6 -3 -1.9958 -0.2406
-9 6 -2 8.3031 0.6599
-9 6 -1 -2.4857 0.7560
-9 6 0 7.3346 -0.2921
-9 6 1 0.6385 0.8583
-9 6 2 3.1620 0.8087
-9 6 3 -3.8038 0.1646
-9 6 4 3.4198 -0.2373
-9 6 5 -0.6613 -0.0205
-9 6 6 3.2192 1.1659
-9 6 7 -0.0278 -0.6849
-9 6 8 2.4804 -0.1774
-9 6 9 -0.8258 -0.1569
-9 6 10 0.8516 0.3880
-9 6 11 0.7493 0.9164
-9 6 12 3.4082 0.2576
-9 6 13 4.2995 0.0007
-9 6 14 -0.6811 -0.7328
-9 6 15 2.8732 -0.5381
-9 7 -8 -3.9097 0.1490
-9 7 -7 -4.0582 -0.6709
-9 7 -6 3.2041 0.3207
-9 7 -5 3.0068 -0.3149
-9 7 -4 -2.6662 0.4477
-9 7 -3 -0.2270 -0.6769
-9 7 -2 0.9137 0.8807
-9 7 -1 -8.3458 -0.2221
-9 7 0 2.1642 -0.4293
-9 7 1 -3.0057 -0.4179
-9 7 2 -0.9480 0.8878
-9 7 3 -2.8993 -0.5507
-9 7 4 1.6396 0.4547
-9 7 5 -1.6467 -0.7676
-9 7 6 -0.0033 0.4504
-9 7 7 -4.2733 -0.4130
-9 7 8 1.7191 0.8863
-9 7 9 -0.9639 -0.1155
-9 7 10 -0.5948 -0.7063
-9 7 11 -1.6504 -0.9865
-9 7 12 -1.4915 -0.1151
-9 7 13 -1.3265 0.6391
-9 7 14 -2.7050 0.3898
-9 8 -8 0.1053 -0.3160
-9 8 -7 0.9484 -0.5792
-9 8 -6 0.6100 0.1921
-9 8 -5 -1.1161 -0.4823
-9 8 -4 -3.3398 0.2035
-9 8 -3 5.5228 -0.9774
-9 8 -2 2.1704 0.2917
-9 8 -1 -3.4087 -0.3260
-9 8 0 4.4538 0.2597
-9 8 1 -0.0179 -0.3870
-9 8 2 1.8881 0.3406
-9 8 3 2.3215 -1.3364
-9 8 4 0.8608 0.6922
-9 8 5 0.2894 -0.0719
-9 8 6 2.8330 0.2910
-9 8 7 -0.4896 -0.6821
-9 8 8 3.2158 -0.2005
-9 8 9 -1.5595 0.8895
-9 8 10 -0.4808 0.4728
-9 8 11 1.5511 0.1420
-9 8 12 1.6005 0.1430
-9 8 13 -0.9543 -0.3495
-9 8 14 -2.2307 -0.6873
-9 9 -8 -6.0529 0.8637
-9 9 -7 2.4455 0.8029
-9 9 -6 -0.0297 0.4843
-9 9 -5 0.0033 -0.1689
-9 9 -4 -3.5021 0.3568
-9 9 -3 2.4374 0.1324
-9 9 -2 -2.1883 0.5029
-9 9 -1 -1.3838 -0.0762
-9 9 0 3.2069 -0.1192
-9 9 1 -3.2765 0.0600
-9 9 2 -3.2395 0.9467
-9 9 3 0.7769 -0.2139
-9 9 4 -2.5259 0.3770
-9 9 5 -1.3531 -0.0754
-9 9 6 -1.8074 0.2282
-9 9 7 -3.0346 0.0483
-9 9 8 1.8419 -0.6693
-9 9 9 -0.0420 0.7664
-9 9 10 0.1654 -1.1084
-9 9 11 -0.0336 0.2800
-9 9 12 0.7604 0.7777
-9 9 13 1.0446 0.1159
-9 10 -8 -3.1648 -0.9940
-9 10 -7 4.5186 -1.0335
-9 10 -6 -1.1355 -0.3137
-9 10 -5 2.3441 0.3583
-9 10 -4 0.3303 0.0367
-9 10 -3 2.0136 -0.1088
-9 10 -2 -2.5450 -0.4658
-9 10 -1 -0.4564 0.1067
-9 10 0 3.1886 -0.2690
-9 10 1 0.5207 -0.1114
-9 10 2 -0.3943 -0.3351
-9 10 3 3.0428 -0.5577
-9 10 4 -1.3913 -0.3478
-9 10 5 3.4492 0.1096
-9 10 6 3.2673 0.0977
-9 10 7 0.5857 -0.1501
-9 10 8 -0.7829 -0.3438
-9 10 9 -1.9474 0.9126
-9 10 10 0.1983 -2.1670
-9 10 11 -0.5759 0.1434
-9 10 12 -1.2712 -0.0795
-9 11 -8 -2.8584 1.3883
-9 11 -7 2.6158 0.3293
-9 11 -6 -4.8346 -0.1179
-9 11 -5 -1.2262 -0.2986
-9 11 -4 -0.4599 -0.7176
-9 11 -3 1.2326 0.5960
-9 11 -2 0.7392 0.0787
-9 11 -1 -1.0770 0.5256
-9 11 0 -1.7576 -0.1694
-9 11 1 -1.4913 0.5739
-9 11 2 -0.5071 0.3048
-9 11 3 3.9124 0.6114
-9 11 4 -3.0573 0.0964
-9 11 5 -2.7748 0.1916
-9 11 6 -2.2740 -0.0777
-9 11 7 -0.2196 -0.5844
-9 11 8 0.9969 1.0581
-9 11 9 1.6357 1.7115
-9 11 10 1.5175 -0.3764
-9 11 11 -0.5080 2.0523
-9 12 -8 -1.8729 -0.3464
-9 12 -7 3.2588 -0.6462
-9 12 -6 0.5204 0.8322
-9 12 -5 2.0498 0.8413
-9 12 -4 -0.0846 -0.2180
-9 12 -3 -2.6729 0.2103
-9 12 -2 0.5452 -0.7603
-9 12 -1 1.3392 -0.0715
-9 12 0 2.6784 -0.3025
-9 12 1 1.0749 0.0903
-9 12 2 -3.5137 -0.8765
-9 12 3 -0.0868 -0.3308
-9 12 4 -0.1644 -0.0249
-9 12 5 2.4854 0.2394
-9 12 6 3.0713 0.4131
-9 12 7 -0.3476 -1.0333
-9 12 8 -2.3742 0.1058
-9 12 9 -0.5603 -1.8099
-9 13 -7 0.3134 -1.0678
-9 13 -6 -0.8824 -0.2835
-9 13 -5 -0.5295 -0.7141
-9 13 -4 1.3139 -0.1086
-9 13 -3 0.6165 0.7134
-9 13 -2 1.0860 -0.0360
-9 13 -1 -2.9234 0.0050
-9 13 0 -1.6346 -0.1030
-9 13 1 0.8494 0.4957
-9 13 2 1.1049 -0.1883
-9 13 3 2.1379 0.2579
-9 13 4 -0.5031 0.2444
-9 13 5 -2.9875 -0.8622
-9 13 6 -0.0632 -0.0120
-9 13 7 -0.4163 -0.1021
-9 14 -5 -1.4848 -0.3992
-9 14 -4 -0.3639 0.1475
-9 14 -3 -0.5686 -0.3084
-9 14 -2 0.2535 -0.1078
-9 14 -1 0.1837 0.3312
-9 14 0 1.6326 0.3638
-9 14 1 -0.4214 0.4378
-9 14 2 -1.2163 -0.4678
-9 14 3 -1.1795 0.2049
-9 14 4 1.4420 1.0019
-9 14 5 -0.0250 -0.3857
-8 0 -6 5.2798 -3.8648
-8 0 -4 -6.6069 2.4010
-8 0 -2 -3.7643 0.0331
-8 0 0 8.3141 2.0055
-8 0 2 -1.3644 -0.0370
-8 0 4 -2.9580 0.0959
-8 0 6 1.9567 1.1394
-8 0 8 5.4407 -0.2365
-8 0 10 -3.5806 0.1377
-8 0 12 -3.4445 -0.3236
-8 0 14 4.3665 0.3507
-8 0 16 -2.0983 -0.3128
-8 0 18 -2.6383 0.6284
-8 1 -7 -0.5542 4.3663
-8 1 -6 -6.2509 1.3293
-8 1 -5 -1.0484 0.3557
-8 1 -4 1.9090 3.8293
-8 1 -3 7.4480 -1.2888
-8 1 -2 -3.7029 3.1875
-8 1 -1 -3.9157 -0.1534
-8 1 0 2.5162 3.1772
-8 1 1 -3.3041 -0.9550
-8 1 2 1.8497 4.7009
-8 1 3 2.8276 1.0501
-8 1 4 -4.0588 1.9558
-8 1 5 1.1848 -0.8038
-8 1 6 -0.1065 3.5908
-8 1 7 -4.4894 0.1168
-8 1 8 -2.4870 2.2313
-8 1 9 -1.0810 0.2338
-8 1 10 0.1118 2.2166
-8 1 11 5.7220 0.2984
-8 1 12 -2.1974 1.7876
-8 1 13 -1.6444 0.0924
-8 1 14 -3.7220 1.4985
-8 1 15 -1.9414 -0.0704
-8 1 16 1.9023 1.1340
-8 1 17 3.0573 -0.0144
-8 1 18 -2.1978 0.6322
-8 2 -7 9.7843 -1.6830
-8 2 -6 0.5273 -2.5667
-8 2 -5 2.3421 -0.4366
-8 2 -4 -1.7634 0.0348
-8 2 -3 0.4897 -3.7791
-8 2 -2 -0.5490 0.4815
-8 2 -1 3.1231 -0.6933
-8 2 0 1.7381 -1.3335
-8 2 1 -5.7794 -3.6236
-8 2 2 0.3472 -1.0800
-8 2 3 3.4549 -1.5452
-8 2 4 -1.9811 -1.2460
-8 2 5 2.4469 -1.3518
-8 2 6 0.9724 -0.3272
-8 2 7 1.7094 -2.8382
-8 2 8 2.6283 -0.5276
-8 2 9 3.2113 -0.5880
-8 2 10 -4.2660 -0.9481
-8 2 11 0.2352 -1.8334
-8 2 12 -1.6807 -0.5792
-8 2 13 8.2533 -0.7896
-8 2 14 2.6700 -0.2019
-8 2 15 0.7421 -1.2323
-8 2 16 -0.1553 -0.0440
-8 2 17 -1.4153 -0.3409
-8 2 18 0.3879 -0.1624
-8 3 -7 -0.8043 0.5793
-8 3 -6 -7.1674 -0.0870
-8 3 -5 1.1584 2.1838
-8 3 -4 0.0775 1.0216
-8 3 -3 -2.6629 -0.6258
-8 3 -2 -2.1823 1.2347
-8 3 -1 0.6667 1.2650
-8 3 0 0.3974 0.4415
-8 3 1 0.2265 3.2517
-8 3 2 1.0172 1.7559
-8 3 3 -0.3750 1.0416
-8 3 4 -2.6287 -0.4950
-8 3 5 0.5899 2.1484
-8 3 6 -0.5408 1.6148
-8 3 7 -1.0052 -0.0747
-8 3 8 -4.1140 0.6731
-8 3 9 2.7075 1.3322
-8 3 10 -1.5085 0.4886
-8 3 11 3.0475 1.1123
-8 3 12 -6.3036 0.6164
-8 3 13 -2.2748 0.5868
-8 3 14 -7.8823 0.2094
-8 3 15 -1.0062 0.0162
-8 3 16 3.3815 0.4131
-8 3 17 -2.2842 0.4765
-8 3 18 -0.7550 0.0026
-8 4 -7 1.1553 -0.3757
-8 4 -6 -0.6092 -0.5952
-8 4 -5 3.4413 0.1954
-8 4 -4 2.3416 -1.0652
-8 4 -3 -0.4540 0.1915
-8 4 -2 1.8036 0.8143
-8 4 -1 0.9953 -0.3266
-8 4 0 -0.4162 -3.7299
-8 4 1 2.3984 0.3838
-8 4 2 -0.1376 -1.6150
-8 4 3 -0.6998 0.1074
-8 4 4 1.3315 -1.2373
-8 4 5 -1.0123 0.4425
-8 4 6 -0.0494 -0.7482
-8 4 7 2.5120 -0.2736
-8 4 8 -2.4438 0.0937
-8 4 9 2.8657 -0.1448
-8 4 10 -3.5404 -1.6065
-8 4 11 4.2461 -0.0168
-8 4 12 1.9225 -0.3813
-8 4 13 9.2146 0.4355
-8 4 14 2.4235 -0.2524
-8 4 15 1.4703 0.2165
-8 4 16 2.0589 0.1318
-8 4 17 -3.7096 0.1469
-8 4 18 3.7191 -0.8710
-8 5 -7 1.1484 -0.2051
-8 5 -6 0.9242 0.5273
-8 5 -5 -2.8706 0.1467
-8 5 -4 -1.6067 -1.3659
-8 5 -3 0.2056 -0.6066
-8 5 -2 1.4422 -0.1706
-8 5 -1 -2.4778 0.9016
-8 5 0 -3.7560 -0.5336
-8 5 1 -0.8246 2.3316
-8 5 2 -2.2886 -1.3994
-8 5 3 -0.0221 -0.1937
-8 5 4 4.4979 0.0233
-8 5 5 -2.3792 -0.0983
-8 5 6 -0.4837 -1.3468
-8 5 7 2.7372 -0.6341
-8 5 8 -2.3790 -0.0602
-8 5 9 2.6513 0.6541
-8 5 10 -2.5880 -0.2441
-8 5 11 -0.1247 0.3400
-8 5 12 -7.5463 -0.6355
-8 5 13 -4.3398 -0.1171
-8 5 14 -3.8810 -0.8508
-8 5 15 -2.1705 -0.4758
-8 5 16 2.2424 -0.2519
-8 5 17 -3.5636 0.2441
-8 6 -7 -1.2896 0.5356
-8 6 -6 3.3247 0.7631
-8 6 -5 -1.6638 0.2705
-8 6 -4 -0.0167 0.8877
-8 6 -3 0.1649 1.2643
-8 6 -2 -2.1196 0.2199
-8 6 -1 0.8297 -0.0615
-8 6 0 5.5139 -0.4483
-8 6 1 4.0909 1.8859
-8 6 2 -0.8837 -0.0940
-8 6 3 -1.6674 0.3337
-8 6 4 1.5502 1.7448
-8 6 5 -4.0009 0.6827
-8 6 6 -0.4746 1.4013
-8 6 7 2.8569 1.3072
-8 6 8 -2.0130 -0.0502
-8 6 9 -0.3604 0.3283
-8 6 10 0.5367 -0.1096
-8 6 11 4.9695 0.7205
-8 6 12 2.3062 0.4323
-8 6 13 3.9601 0.6990
-8 6 14 4.2994 0.6721
-8 6 15 -1.0125 0.5584
-8 6 16 2.6643 0.6611
-8 6 17 -2.8007 0.2811
-8 7 -7 1.6675 -0.5545
-8 7 -6 1.6962 -0.3254
-8 7 -5 -3.3931 -1.2674
-8 7 -4 2.5813 -0.4060
-8 7 -3 5.3792 -0.2926
-8 7 -2 -2.1246 -0.3069
-8 7 -1 -0.9611 -0.5814
-8 7 0 -0.5613 -0.8951
-8 7 1 -3.6515 -0.5195
-8 7 2 -2.3321 -0.9936
-8 7 3 1.6524 -1.1719
-8 7 4 3.7187 0.1194
-8 7 5 0.2688 -2.4244
-8 7 6 -0.2309 -0.8250
-8 7 7 0.7086 -0.2884
-8 7 8 -0.7375 -0.8955
-8 7 9 -2.3531 0.2213
-8 7 10 1.2564 -0.8342
-8 7 11 -1.0093 -0.1835
-8 7 12 -4.5282 -0.3754
-8 7 13 -2.0562 -0.7107
-8 7 14 1.0790 -0.2793
-8 7 15 -4.2929 -0.8710
-8 7 16 1.2884 -0.0791
-8 8 -7 2.5712 0.0868
-8 8 -6 1.0323 1.0210
-8 8 -5 -3.8558 -0.0585
-8 8 -4 -1.5746 0.2707
-8 8 -3 0.5957 -0.2651
-8 8 -2 -5.3266 0.2698
-8 8 -1 0.9002 0.4051
-8 8 0 1.0829 0.8815
-8 8 1 0.0932 0.4101
-8 8 2 0.6231 0.4621
-8 8 3 1.1864 -0.1203
-8 8 4 -4.0676 1.5814
-8 8 5 -2.2511 -0.3026
-8 8 6 -0.4640 0.6075
-8 8 7 2.2768 0.3317
-8 8 8 3.3848 -0.3768
-8 8 9 -3.7404 0.7626
-8 8 10 2.8090 -0.3563
-8 8 11 -0.0297 0.3942
-8 8 12 -1.3998 0.1473
-8 8 13 1.7510 -0.2208
-8 8 14 2.6058 0.7080
-8 8 15 -1.0348 -0.2682
-8 8 16 2.9168 0.8147
-8 9 -7 -1.1993 -0.8621
-8 9 -6 -0.3215 0.3145
-8 9 -5 1.4205 -0.1771
-8 9 -4 1.9755 0.5535
-8 9 -3 3.3513 0.1234
-8 9 -2 -1.7903 0.2918
-8 9 -1 4.9702 -0.4327
-8 9 0 1.5298 0.0972
-8 9 1 0.3282 -0.0749
-8 9 2 -2.0706 0.4741
-8 9 3 3.5614 -0.5216
-8 9 4 -0.2359 0.7541
-8 9 5 4.2736 -0.0091
-8 9 6 -1.2715 0.5334
-8 9 7 -3.6485 0.5957
-8 9 8 1.0852 0.0893
-8 9 9 -3.5339 0.3203
-8 9 10 4.7979 0.1209
-8 9 11 0.7034 0.4442
-8 9 12 -0.9566 0.0798
-8 9 13 1.6887 -0.3363
-8 9 14 -2.1025 0.7354
-8 9 15 -2.8365 -0.3792
-8 10 -7 0.1292 -0.5004
-8 10 -6 -0.4640 0.2759
-8 10 -5 -0.6766 -0.3121
-8 10 -4 -3.0572 -0.2152
-8 10 -3 1.7659 -0.5258
-8 10 -2 -3.2913 0.0600
-8 10 -1 -0.7638 -0.5537
-8 10 0 -4.7411 -0.2730
-8 10 1 -0.1017 -0.5359
-8 10 2 -2.6170 0.0232
-8 10 3 2.6004 -0.9144
-8 10 4 -5.4414 -0.2040
-8 10 5 2.3531 -0.9111
-8 10 6 0.7915 -1.0681
-8 10 7 0.9847 -0.3273
-8 10 8 3.4811 -0.4000
-8 10 9 -3.9108 -1.2860
-8 10 10 -0.4437 0.0757
-8 10 11 -2.8021 -0.4098
-8 10 12 -1.8603 0.2412
-8 10 13 2.6769 -0.3439
-8 10 14 -0.1978 0.1685
-8 11 -7 -2.0568 0.5195
-8 11 -6 0.9710 -0.1754
-8 11 -5 2.6838 -0.0261
-8 11 -4 -2.1961 0.0776
-8 11 -3 2.3756 0.0877
-8 11 -2 -2.4082 0.6015
-8 11 -1 2.7419 0.2767
-8 11 0 2.0188 0.3877
-8 11 1 4.4124 0.1604
-8 11 2 -1.5266 0.4347
-8 11 3 3.6746 -0.0069
-8 11 4 -4.4901 0.9390
-8 11 5 1.3606 0.6251
-8 11 6 -3.6428 0.0485
-8 11 7 -2.1815 0.8076
-8 11 8 1.5946 0.8424
-8 11 9 1.3375 -0.2422
-8 11 10 2.7153 1.5602
-8 11 11 1.5664 -1.3652
-8 11 12 0.6350 -0.0646
-8 11 13 0.2204 -0.4725
-8 12 -7 -1.6764 0.7561
-8 12 -6 0.1258 -0.3450
-8 12 -5 -0.3829 0.6695
-8 12 -4 -2.3817 -0.1757
-8 12 -3 5.5514 -0.2774
-8 12 -2 -1.0283 -0.2165
-8 12 -1 0.4259 -0.0139
-8 12 0 -2.1881 -0.1013
-8 12 1 -1.9312 0.1434
-8 12 2 -3.4356 0.1524
-8 12 3 4.0232 -0.2303
-8 12 4 -0.3005 -0.1621
-8 12 5 6.5744 0.0245
-8 12 6 0.8152 -0.1417
-8 12 7 1.5687 0.4694
-8 12 8 -1.7898 -0.5449
-8 12 9 -1.4901 -0.8240
-8 12 10 -2.9484 1.6983
-8 12 11 -0.8599 -0.4867
-8 12 12 0.5577 1.8834
-8 13 -7 1.1128 0.4368
-8 13 -6 1.8629 -1.1679
-8 13 -5 -0.5924 0.6061
-8 13 -4 -2.6107 -0.0880
-8 13 -3 1.0170 0.4284
-8 13 -2 -5.3344 -0.2562
-8 13 -1 0.6144 0.1483
-8 13 0 2.1325 -0.5727
-8 13 1 1.4529 -0.1451
-8 13 2 -0.4371 -0.2669
-8 13 3 0.1669 0.2479
-8 13 4 -6.4773 -0.5051
-8 13 5 -1.9042 -0.1218
-8 13 6 -5.1452 -0.8076
-8 13 7 1.8704 0.0629
-8 13 8 0.0637 -1.0204
-8 13 9 3.2789 -0.0749
-8 13 10 0.0999 -0.2950
-8 14 -7 -0.8194 1.0419
-8 14 -6 0.2347 -0.2532
-8 14 -5 -0.7743 0.0995
-8 14 -4 2.4066 -1.0044
-8 14 -3 3.8627 0.1886
-8 14 -2 -1.5840 -0.3379
-8 14 -1 1.9340 0.6078
-8 14 0 -0.2885 -0.2737
-8 14 1 -1.7720 0.1635
-8 14 2 -0.1287 -0.3351
-8 14 3 3.2491 0.5456
-8 14 4 2.0679 -0.7115
-8 14 5 5.4228 0.9483
-8 14 6 0.0004 0.4068
-8 14 7 2.4988 1.2721
-8 14 8 -2.8449 -0.3040
-8 14 9 -0.4715 1.9972
-8 15 -6 0.3551 0.1715
-8 15 -5 -3.5835 0.5624
-8 15 -4 0.1861 0.2682
-8 15 -3 -0.8397 0.6836
-8 15 -2 -1.9598 -0.3205
-8 15 -1 2.0015 0.6141
-8 15 0 -0.0205 0.3774
-8 15 1 0.1244 0.6762
-8 15 2 -0.2873 0.1724
-8 15 3 -0.3728 1.0785
-8 15 4 -2.8292 -0.6234
-8 15 5 -1.4361 0.4967
-8 15 6 -2.7527 -0.8481
-8 16 -1 0.4696 -0.8739
-8 16 0 -1.4754 -0.8499
-8 16 1 -0.1816 -1.0673
-7 0 -5 -7.1685 -2.0575
-7 0 -3 -7.3569 -12.8720
-7 0 -1 13.7089 -13.6227
-7 0 1 5.3442 -9.4218
-7 0 3 -0.5648 -10.4599
-7 0 5 0.6229 -8.9361
-7 0 7 1.9485 -9.0025
-7 0 9 1.2507 -6.0437
-7 0 11 0.5991 -5.0077
-7 0 13 8.0043 -3.7708
-7 0 15 -0.7329 -3.4490
-7 0 17 -2.7064 -1.7714
-7 0 19 0.3059 -1.7267
-7 1 -6 -1.3420 -0.4472
-7 1 -5 7.5388 -5.0744
-7 1 -4 10.1253 6.0224
-7 1 -3 -1.4149 -4.2857
-7 1 -2 -3.3020 12.6250
-7 1 -1 -0.2193 -6.3011
-7 1 0 -9.9388 8.4338
-7 1 1 2.3295 -3.4203
-7 1 2 -0.8247 7.6019
-7 1 3 -1.5184 -4.9208
-7 1 4 0.5719 7.7605
-7 1 5 3.6500 -3.5190
-7 1 6 -0.7569 7.5212
-7 1 7 -1.6870 -3.4137
-7 1 8 -3.0764 6.2697
-7 1 9 1.8762 -3.2413
-7 1 10 0.3554 4.0792
-7 1 11 1.7428 -1.6800
-7 1 12 -4.6446 3.4694
-7 1 13 -1.2503 -2.1024
-7 1 14 -4.9383 3.1016
-7 1 15 2.6272 -0.7870
-7 1 16 3.2328 2.3527
-7 1 17 -1.2277 -1.3362
-7 1 18 0.2436 1.0688
-7 1 19 -0.3554 -0.6915
-7 2 -6 -4.6750 5.2172
-7 2 -5 -4.2518 -2.3207
-7 2 -4 -7.9420 1.9906
-7 2 -3 -2.3934 -6.1561
-7 2 -2 4.7768 4.8377
-7 2 -1 1.7074 -6.2610
-7 2 0 -1.9956 3.2696
-7 2 1 4.3866 -3.3625
-7 2 2 2.4892 1.6334
-7 2 3 -1.2070 -3.5258
-7 2 4 -3.4267 3.5883
-7 2 5 -1.7956 -4.8971
-7 2 6 -2.5959 0.9186
-7 2 7 3.0918 -3.9070
-7 2 8 1.5282 2.9589
-7 2 9 2.2275 -2.9827
-7 2 10 -6.1244 1.1092
-7 2 11 0.8850 -1.6697
-7 2 12 3.0886 1.3756
-7 2 13 5.2036 -2.0848
-7 2 14 -0.9976 0.6824
-7 2 15 0.6662 -1.9222
-7 2 16 -3.0433 0.6532
-7 2 17 -1.0219 -0.6761
-7 2 18 1.0996 0.7600
-7 2 19 -0.2095 -0.8492
-7 3 -6 5.8443 -0.2418
-7 3 -5 9.0534 -1.5877
-7 3 -4 -2.3104 2.7958
-7 3 -3 2.6322 -1.6268
-7 3 -2 3.9635 0.7054
-7 3 -1 -4.4918 -3.1566
-7 3 0 1.2939 1.0579
-7 3 1 -4.5729 -0.0886
-7 3 2 -1.7620 -1.6975
-7 3 3 -0.1693 -1.8578
-7 3 4 4.1428 1.3579
-7 3 5 6.5036 -0.7592
-7 3 6 -0.4960 1.3770
-7 3 7 -1.0416 -0.7274
-7 3 8 -3.6225 0.6001
-7 3 9 4.8270 -1.4818
-7 3 10 -1.3452 0.3803
-7 3 11 1.3136 -0.2931
-7 3 12 -2.1504 0.0155
-7 3 13 -6.2936 -0.7641
-7 3 14 -1.8083 1.2637
-7 3 15 4.6406 -0.0959
-7 3 16 -0.6028 0.1610
-7 3 17 3.5035 -0.4108
-7 3 18 -0.5207 -0.2562
-7 3 19 2.3522 -0.3074
-7 4 -6 -2.9835 -1.1093
-7 4 -5 0.6093 -1.6204
-7 4 -4 -5.7733 0.4024
-7 4 -3 1.3105 1.7390
-7 4 -2 -0.9334 0.8425
-7 4 -1 -5.8275 2.2052
-7 4 0 11.0582 -0.0029
-7 4 1 0.0334 2.9339
-7 4 2 4.5328 0.2666
-7 4 3 -2.5834 2.8806
-7 4 4 -5.3753 0.4805
-7 4 5 -2.2629 -0.2918
-7 4 6 -2.4330 -0.0203
-7 4 7 1.7741 1.4947
-7 4 8 -2.3949 0.4907
-7 4 9 1.9514 0.7582
-7 4 10 -4.4866 0.2596
-7 4 11 1.5834 1.3451
-7 4 12 6.6995 0.0821
-7 4 13 0.2151 -0.0343
-7 4 14 3.2115 0.3749
-7 4 15 -0.4708 -0.0763
-7 4 16 -7.4841 -0.1413
-7 4 17 2.8801 0.7098
-7 4 18 -6.7465 0.0557
-7 4 19 0.1403 1.5268
-7 5 -6 0.4532 0.1827
-7 5 -5 -1.7831 1.7485
-7 5 -4 -1.4238 -0.8756
-7 5 -3 6.1468 0.0831
-7 5 -2 1.7362 -3.4369
-7 5 -1 -5.5060 1.7908
-7 5 0 -0.0271 -3.0178
-7 5 1 -11.1839 -0.0022
-7 5 2 2.6082 -3.4371
-7 5 3 2.9332 0.4061
-7 5 4 1.5412 -1.0738
-7 5 5 2.3227 0.2481
-7 5 6 0.3600 -1.0775
-7 5 7 2.5167 0.1164
-7 5 8 -0.0009 -1.7511
-7 5 9 4.1674 0.2552
-7 5 10 -0.9073 -1.5628
-7 5 11 -2.7386 0.3359
-7 5 12 -0.7425 -1.0256
-7 5 13 -6.8927 -0.0358
-7 5 14 3.0795 0.0225
-7 5 15 1.3643 -0.1005
-7 5 16 -1.1913 -0.3919
-7 5 17 10.5221 0.4729
-7 5 18 -3.8519 -1.8507
-7 5 19 6.7217 -0.2975
-7 6 -6 0.4298 -2.2979
-7 6 -5 1.9162 0.4445
-7 6 -4 2.1197 -0.9886
-7 6 -3 -3.9621 1.6341
-7 6 -2 -4.0838 -2.3240
-7 6 -1 5.8396 2.5850
-7 6 0 7.7285 -1.5287
-7 6 1 0.8211 2.0862
-7 6 2 0.8810 -0.2666
-7 6 3 -2.2022 0.6908
-7 6 4 -1.7312 -1.1682
-7 6 5 1.2796 0.3729
-7 6 6 0.0767 -0.3036
-7 6 7 -2.0935 0.9976
-7 6 8 -5.0418 -0.7140
-7 6 9 -1.2675 1.5298
-7 6 10 1.1773 -0.6775
-7 6 11 -0.1107 1.1168
-7 6 12 4.0463 -0.6931
-7 6 13 -1.6185 0.2586
-7 6 14 2.8504 0.0725
-7 6 15 -3.0817 -0.1167
-7 6 16 -4.2428 -0.5053
-7 6 17 4.2726 1.0832
-7 6 18 -10.7524 -0.0606
-7 7 -6 -5.8958 0.6057
-7 7 -5 -5.0375 0.9034
-7 7 -4 5.7213 -0.1599
-7 7 -3 -0.1576 1.6623
-7 7 -2 -1.3045 -0.7384
-7 7 -1 1.9575 2.0787
-7 7 0 -10.6501 -1.1662
-7 7 1 0.3870 0.7858
-7 7 2 0.6585 0.6917
-7 7 3 2.0739 1.0680
-7 7 4 -1.6487 0.5727
-7 7 5 -3.1048 0.9427
-7 7 6 0.1222 0.0107
-7 7 7 3.2730 0.8354
-7 7 8 2.8977 -0.8510
-7 7 9 2.2189 0.7179
-7 7 10 2.3284 -0.8521
-7 7 11 -3.4002 1.0144
-7 7 12 1.8956 -0.2139
-7 7 13 0.1223 0.5681
-7 7 14 1.7156 0.2419
-7 7 15 -1.7762 0.3563
-7 7 16 -0.2754 -0.2142
-7 7 17 5.5060 0.3599
-7 7 18 -4.8593 -1.5059
-7 8 -6 0.9260 0.5808
-7 8 -5 0.3794 -1.0696
-7 8 -4 4.7149 -0.3133
-7 8 -3 -6.4574 -0.5367
-7 8 -2 -0.9322 -0.8410
-7 8 -1 9.2331 0.1774
-7 8 0 -5.2229 -0.7705
-7 8 1 8.1977 -1.1341
-7 8 2 -4.1704 -0.8047
-7 8 3 0.7096 -1.3919
-7 8 4 2.7993 -0.6255
-7 8 5 2.1111 -0.7482
-7 8 6 1.1061 -0.8994
-7 8 7 -1.3454 0.2209
-7 8 8 -4.9281 -0.6302
-7 8 9 -2.6368 0.5719
-7 8 10 0.7901 -0.4087
-7 8 11 -4.5689 -0.2081
-7 8 12 -0.2995 -0.8753
-7 8 13 -1.2398 -0.1794
-7 8 14 -0.2661 -0.4271
-7 8 15 1.4843 -0.2785
-7 8 16 1.5952 -0.3756
-7 8 17 2.1288 0.7753
-7 9 -6 -1.0536 0.8175
-7 9 -5 -1.5247 -1.0508
-7 9 -4 3.9425 1.2838
-7 9 -3 -3.5822 -0.9453
-7 9 -2 -0.0869 0.1593
-7 9 -1 2.6944 -0.4746
-7 9 0 -9.4743 1.1411
-7 9 1 5.8115 0.1302
-7 9 2 -5.0035 1.2845
-7 9 3 -0.4531 -0.0065
-7 9 4 -1.1429 0.8194
-7 9 5 -3.0541 -0.0156
-7 9 6 -1.3358 0.5028
-7 9 7 3.6192 0.4402
-7 9 8 0.9065 -0.7078
-7 9 9 3.6610 -0.1398
-7 9 10 4.0750 0.5846
-7 9 11 1.1025 -0.1200
-7 9 12 4.6256 0.4198
-7 9 13 0.4422 0.4594
-7 9 14 -2.9808 0.2897
-7 9 15 -1.2143 -0.0151
-7 9 16 -2.8285 -0.0941
-7 10 -6 -1.0271 0.5957
-7 10 -5 -2.2894 -0.7834
-7 10 -4 2.1414 1.7676
-7 10 -3 -0.6324 -0.2611
-7 10 -2 2.9910 1.6708
-7 10 -1 2.5599 -0.6011
-7 10 0 -2.2588 0.9020
-7 10 1 5.3948 -1.0785
-7 10 2 -0.3936 0.8084
-7 10 3 2.6452 -0.1346
-7 10 4 2.9248 0.7217
-7 10 5 0.5477 -0.6951
-7 10 6 -2.2052 0.7159
-7 10 7 1.4481 0.1666
-7 10 8 -4.5266 0.1426
-7 10 9 -1.9678 -0.0362
-7 10 10 -4.6123 1.0283
-7 10 11 -4.4315 -1.0728
-7 10 12 -0.8760 0.5412
-7 10 13 -0.3952 -0.0533
-7 10 14 1.8139 0.2256
-7 10 15 4.7360 -0.4145
-7 10 16 -0.4386 0.0945
-7 11 -6 4.6510 0.0157
-7 11 -5 1.4916 -0.6340
-7 11 -4 0.2244 -0.2908
-7 11 -3 -4.7485 -1.4905
-7 11 -2 -2.2240 0.2128
-7 11 -1 -2.5600 -1.1640
-7 11 0 0.8365 0.4961
-7 11 1 -1.3568 -1.3856
-7 11 2 -2.8315 0.0247
-7 11 3 -3.9034 -1.0174
-7 11 4 -0.3915 -0.1023
-7 11 5 1.2942 -1.1113
-7 11 6 -0.4024 0.5189
-7 11 7 4.3409 -0.9284
-7 11 8 -0.0252 0.0275
-7 11 9 4.4483 -0.4732
-7 11 10 2.6176 0.6849
-7 11 11 4.8030 -1.6011
-7 11 12 0.5169 0.4698
-7 11 13 -2.2577 -0.6653
-7 11 14 -1.8239 0.0269
-7 11 15 0.4099 -0.5456
-7 12 -6 -3.5489 -0.1076
-7 12 -5 -3.3047 0.7144
-7 12 -4 2.4235 -0.2297
-7 12 -3 3.6393 0.2917
-7 12 -2 5.8948 0.2991
-7 12 -1 -1.3456 -0.1234
-7 12 0 1.5194 0.7675
-7 12 1 -2.5183 0.1839
-7 12 2 5.1463 1.0705
-7 12 3 1.6852 0.1233
-7 12 4 1.3047 0.4941
-7 12 5 -1.8598 0.2100
-7 12 6 -4.2135 1.0075
-7 12 7 -0.3295 -0.7981
-7 12 8 -2.8966 0.3368
-7 12 9 -1.8558 -0.1444
-7 12 10 -4.5629 0.6688
-7 12 11 1.1914 -0.2885
-7 12 12 -2.0123 1.4039
-7 12 13 1.6230 0.0581
-7 12 14 1.0849 0.3634
-7 13 -6 3.6708 -0.2630
-7 13 -5 1.6579 0.7532
-7 13 -4 -1.2440 -0.6375
-7 13 -3 -6.5842 1.1793
-7 13 -2 -1.5758 -0.0193
-7 13 -1 -1.9415 0.3624
-7 13 0 4.6026 -0.4320
-7 13 1 -2.0610 -0.0197
-7 13 2 0.4742 0.0927
-7 13 3 -3.9489 -0.1984
-7 13 4 1.0467 -0.5410
-7 13 5 2.2272 0.1730
-7 13 6 3.0598 -0.0474
-7 13 7 2.4423 -0.2873
-7 13 8 1.6662 0.7643
-7 13 9 1.8348 0.3388
-7 13 10 -0.4031 -0.6511
-7 13 11 2.8411 -0.4615
-7 13 12 -3.9326 -0.0189
-7 13 13 1.7540 -0.6110
-7 14 -6 -1.8330 -0.1074
-7 14 -5 0.3590 0.3286
-7 14 -4 2.4302 -0.9950
-7 14 -3 1.7373 0.2213
-7 14 -2 4.2443 -0.9742
-7 14 -1 -2.5556 0.2016
-7 14 0 -1.4343 -1.1712
-7 14 1 -2.4721 0.0924
-7 14 2 2.0101 -0.5008
-7 14 3 -0.3963 0.0766
-7 14 4 0.3437 -0.3679
-7 14 5 -3.3963 1.2222
-7 14 6 -1.1443 -0.7410
-7 14 7 -2.9998 -0.2017
-7 14 8 -0.9390 -0.2486
-7 14 9 -0.3521 0.3542
-7 14 10 -0.4129 -0.9624
-7 14 11 2.9924 0.8643
-7 15 -6 -0.6643 -0.7939
-7 15 -5 0.2388 -0.3275
-7 15 -4 -2.3537 -0.2631
-7 15 -3 -2.5661 -0.0962
-7 15 -2 1.1679 -0.0205
-7 15 -1 -0.0862 1.1136
-7 15 0 1.9935 0.1865
-7 15 1 1.8050 1.5180
-7 15 2 0.5965 0.0592
-7 15 3 -0.1391 -0.0391
-7 15 4 1.9150 -1.0602
-7 15 5 -0.3285 0.6289
-7 15 6 3.3273 -1.3345
-7 15 7 -0.1773 0.4933
-7 15 8 0.9309 -0.2687
-7 15 9 0.3218 0.6735
-7 16 -6 1.6339 0.8926
-7 16 -5 2.8889 1.0300
-7 16 -4 -0.5724 1.5710
-7 16 -3 0.8616 0.1108
-7 16 -2 0.9165 0.5380
-7 16 -1 -1.3573 -0.5825
-7 16 0 -1.1777 -1.5832
-7 16 1 -0.1936 -0.5173
-7 16 2 -1.8383 -0.3027
-7 16 3 -0.6602 0.6646
-7 16 4 0.1037 0.7547
-7 16 5 -2.0959 1.4682
-7 16 6 1.4219 -0.1574
-7 16 7 -1.0850 1.3415
-7 17 -2 -0.2923 0.3788
-7 17 -1 -0.6037 0.2939
-7 17 0 0.2721 1.2711
-7 17 1 1.2787 0.8809
-7 17 2 -0.7153 -0.0746
-6 0 -4 -0.5403 21.6558
-6 0 -2 1.5697 13.7512
-6 0 0 -17.3198 14.1582
-6 0 2 -2.5214 12.1687
-6 0 4 7.0174 12.4542
-6 0 6 0.9673 11.0206
-6 0 8 -1.9120 9.3227
-6 0 10 2.8329 6.7001
-6 0 12 -4.8470 5.2532
-6 0 14 -21.1350 4.5984
-6 0 16 -9.0312 2.8255
-6 0 18 5.0314 2.2102
-6 0 20 1.4156 0.2417
-6 1 -5 9.2684 -15.8688
-6 1 -4 -5.8043 5.7910
-6 1 -3 -4.3614 -14.8857
-6 1 -2 6.3859 3.4736
-6 1 -1 8.0998 -10.7609
-6 1 0 9.9243 3.1133
-6 1 1 9.2934 -10.8854
-6 1 2 1.2223 2.9813
-6 1 3 -4.6392 -9.4469
-6 1 4 0.5442 2.3934
-6 1 5 -3.9465 -10.2686
-6 1 6 -3.7467 2.2167
-6 1 7 1.3350 -8.1780
-6 1 8 -1.0452 1.4516
-6 1 9 0.3187 -6.8457
-6 1 10 1.5000 2.1980
-6 1 11 -1.0466 -4.6769
-6 1 12 0.7458 0.2920
-6 1 13 13.9519 -4.4675
-6 1 14 -1.4732 1.2297
-6 1 15 16.7505 -3.0453
-6 1 16 -6.1733 0.2332
-6 1 17 0.0258 -2.5336
-6 1 18 1.8438 0.6150
-6 1 19 -2.8077 -0.3918
-6 1 20 2.3928 0.9301
-6 2 -5 3.3028 -3.0393
-6 2 -4 -2.0675 11.2473
-6 2 -3 2.5313 -4.0351
-6 2 -2 -0.9625 7.6055
-6 2 -1 -17.0059 -0.2104
-6 2 0 -2.4225 5.9419
-6 2 1 -7.3732 -2.0785
-6 2 2 1.4916 5.6010
-6 2 3 -0.8662 -0.0588
-6 2 4 3.0149 6.0069
-6 2 5 2.0026 -1.4281
-6 2 6 1.3312 6.5186
-6 2 7 4.5527 0.0027
-6 2 8 -2.0023 4.3094
-6 2 9 -1.9450 -0.9923
-6 2 10 -0.1884 3.6827
-6 2 11 -0.8607 -0.2776
-6 2 12 -5.7755 2.9693
-6 2 13 0.0986 0.0911
-6 2 14 -14.5185 2.4747
-6 2 15 7.5843 -0.7069
-6 2 16 -6.1515 2.3001
-6 2 17 4.4015 0.5685
-6 2 18 0.2447 0.6910
-6 2 19 -6.8712 -0.7056
-6 2 20 -0.6178 -0.0806
-6 3 -5 -0.3797 -1.5250
-6 3 -4 -4.8371 2.7441
-6 3 -3 4.9181 -4.6009
-6 3 -2 7.2481 0.1165
-6 3 -1 -3.9311 -0.8535
-6 3 0 13.5351 0.6336
-6 3 1 -7.2393 -0.8181
-6 3 2 1.7508 0.5301
-6 3 3 -0.5356 -1.3597
-6 3 4 -0.5113 0.2097
-6 3 5 -0.8845 -2.9428
-6 3 6 -2.6414 0.8924
-6 3 7 -0.5772 -2.3758
-6 3 8 -0.0939 -0.2329
-6 3 9 2.5560 -0.6173
-6 3 10 1.6065 0.8099
-6 3 11 2.9862 -1.7725
-6 3 12 -0.9372 -0.4067
-6 3 13 9.2558 -0.7110
-6 3 14 -4.4008 0.4880
-6 3 15 6.0130 -1.6129
-6 3 16 -7.8887 -0.1610
-6 3 17 1.8124 -0.6821
-6 3 18 3.8472 -0.1360
-6 3 19 2.8696 0.4329
-6 3 20 4.6669 -0.4061
-6 4 -5 -2.5988 -0.2628
-6 4 -4 -3.7517 -1.2721
-6 4 -3 0.5971 0.0921
-6 4 -2 -1.1169 -1.3139
-6 4 -1 -6.4571 -0.3396
-6 4 0 12.2737 -3.7290
-6 4 1 -5.3579 -0.8707
-6 4 2 4.0133 -1.7283
-6 4 3 2.5360 -0.7265
-6 4 4 -2.6479 -0.8843
-6 4 5 0.7487 -1.2272
-6 4 6 1.9466 0.6691
-6 4 7 -1.7625 -0.7086
-6 4 8 -0.5902 -1.4727
-6 4 9 -0.5190 -0.4829
-6 4 10 -3.2134 -0.6248
-6 4 11 0.3877 -0.6642
-6 4 12 -5.0544 -0.1098
-6 4 13 3.4057 -0.1048
-6 4 14 -5.4519 -0.0926
-6 4 15 6.1060 -0.3468
-6 4 16 1.0447 0.5195
-6 4 17 0.2621 -0.1109
-6 4 18 -2.7809 -0.4613
-6 4 19 -4.9754 0.5332
-6 4 20 -2.8027 -0.7301
-6 5 -5 -1.9659 2.6882
-6 5 -4 3.4521 -1.5870
-6 5 -3 4.9655 3.3474
-6 5 -2 -2.5280 0.3346
-6 5 -1 -7.1966 4.7412
-6 5 0 2.6427 0.7018
-6 5 1 -7.5519 3.8660
-6 5 2 -0.7023 0.8959
-6 5 3 2.0724 2.1932
-6 5 4 -5.5906 1.4547
-6 5 5 1.3880 1.2355
-6 5 6 3.8899 1.0735
-6 5 7 -2.6193 1.6988
-6 5 8 2.1239 0.8334
-6 5 9 2.1948 2.5778
-6 5 10 -1.8406 0.7135
-6 5 11 1.8887 1.0389
-6 5 12 0.0931 0.7797
-6 5 13 3.9689 0.7876
-6 5 14 -5.4020 -0.0208
-6 5 15 -0.1461 0.5051
-6 5 16 -1.4945 0.7165
-6 5 17 -3.0823 0.3114
-6 5 18 2.4351 -0.1806
-6 5 19 2.1748 0.6896
-6 5 20 0.5079 -0.2744
-6 6 -5 -2.9474 1.3049
-6 6 -4 -3.7671 -2.3100
-6 6 -3 1.2139 0.7271
-6 6 -2 0.7446 -4.1425
-6 6 -1 3.4328 -0.6992
-6 6 0 4.1526 -3.4511
-6 6 1 -1.8661 0.1569
-6 6 2 0.1950 -2.1180
-6 6 3 6.8203 -0.9561
-6 6 4 -2.8174 -1.2658
-6 6 5 3.2974 -0.4223
-6 6 6 0.9495 -1.7072
-6 6 7 -6.6069 -0.5191
-6 6 8 0.8088 -2.4007
-6 6 9 3.1237 -0.3813
-6 6 10 -0.7300 -2.1187
-6 6 11 -0.9059 -0.6240
-6 6 12 0.8340 -0.7685
-6 6 13 -0.7035 -0.1119
-6 6 14 -2.1596 -0.8860
-6 6 15 4.7806 -0.2168
-6 6 16 3.3140 -0.8036
-6 6 17 -0.6165 -0.4309
-6 6 18 4.3572 -0.2166
-6 6 19 1.5237 0.0779
-6 7 -5 2.6942 -0.8168
-6 7 -4 -1.3184 -0.6110
-6 7 -3 2.3731 1.6757
-6 7 -2 -2.8953 0.1663
-6 7 -1 0.5571 1.8334
-6 7 0 0.8347 -0.7043
-6 7 1 1.2362 0.8633
-6 7 2 -0.7168 -0.5314
-6 7 3 1.4762 0.1809
-6 7 4 -9.7835 -0.5325
-6 7 5 1.0645 0.8676
-6 7 6 2.3091 -0.8035
-6 7 7 -0.3568 1.5854
-6 7 8 2.3193 -0.1846
-6 7 9 -0.8960 1.7546
-6 7 10 -4.0683 -0.2658
-6 7 11 -3.0758 1.0914
-6 7 12 6.7220 -0.0368
-6 7 13 -1.4140 0.2556
-6 7 14 -1.1846 -0.1991
-6 7 15 1.3504 1.0181
-6 7 16 -4.9913 0.0881
-6 7 17 -5.6941 0.2327
-6 7 18 -2.8192 0.2306
-6 7 19 -4.7155 0.6967
-6 8 -5 4.6339 0.5196
-6 8 -4 -3.6019 1.2679
-6 8 -3 2.2890 -0.2841
-6 8 -2 -3.8830 0.3554
-6 8 -1 -1.3624 0.7429
-6 8 0 -2.7828 0.4236
-6 8 1 -3.3764 1.1211
-6 8 2 -2.0514 1.0233
-6 8 3 4.4783 1.3134
-6 8 4 -0.2869 0.5391
-6 8 5 6.8749 1.8124
-6 8 6 -1.3616 -0.6534
-6 8 7 -5.2214 0.9796
-6 8 8 0.4209 -0.5730
-6 8 9 3.2079 0.7959
-6 8 10 4.3190 -0.8486
-6 8 11 -2.2965 0.7695
-6 8 12 3.4477 0.1260
-6 8 13 -7.2385 0.2113
-6 8 14 -0.1310 -0.2099
-6 8 15 5.1533 0.5032
-6 8 16 0.2630 -0.3535
-6 8 17 7.8176 -0.1035
-6 8 18 6.6063 -0.3186
-6 9 -5 1.0488 -1.3868
-6 9 -4 -5.8229 0.2294
-6 9 -3 5.7787 -1.9904
-6 9 -2 2.8724 -0.2054
-6 9 -1 4.2576 -1.3734
-6 9 0 3.2169 -0.7017
-6 9 1 1.7344 -1.3173
-6 9 2 3.7366 -0.9104
-6 9 3 1.5928 -1.6361
-6 9 4 -6.3459 -1.6259
-6 9 5 -0.1878 -0.2995
-6 9 6 0.3730 -1.2728
-6 9 7 1.9836 -0.3600
-6 9 8 2.4454 -0.5401
-6 9 9 -4.8846 -0.2209
-6 9 10 -2.2997 -1.1390
-6 9 11 -4.1385 -0.1863
-6 9 12 6.5075 -0.2610
-6 9 13 -0.4404 -0.7918
-6 9 14 1.9402 -0.4422
-6 9 15 0.2981 -0.1002
-6 9 16 -8.8845 -0.3629
-6 9 17 -2.0897 0.1172
-6 9 18 -6.3586 0.3847
-6 10 -5 4.1965 -0.8097
-6 10 -4 -3.0353 1.2400
-6 10 -3 -0.8675 0.1609
-6 10 -2 -6.6428 1.5376
-6 10 -1 -3.1335 -0.0597
-6 10 0 -0.7598 1.0665
-6 10 1 -4.6355 -0.0278
-6 10 2 -2.6280 1.3787
-6 10 3 -1.7815 0.2280
-6 10 4 -0.4035 1.0847
-6 10 5 2.4964 0.5143
-6 10 6 -0.7365 0.5820
-6 10 7 -4.0205 -0.1214
-6 10 8 2.3212 1.2354
-6 10 9 0.8015 0.3460
-6 10 10 6.7162 0.5397
-6 10 11 -1.7467 0.4807
-6 10 12 -0.5164 1.0258
-6 10 13 -3.4391 -0.2202
-6 10 14 -0.8791 1.1013
-6 10 15 2.7181 0.5464
-6 10 16 1.3114 -0.0355
-6 10 17 7.7190 -0.4009
-6 11 -5 -0.9293 -0.1592
-6 11 -4 -0.7809 0.2723
-6 11 -3 5.5340 -0.1525
-6 11 -2 3.0696 -0.0878
-6 11 -1 2.2874 -0.5714
-6 11 0 1.8307 0.6387
-6 11 1 1.1745 -0.6024
-6 11 2 5.1595 0.7920
-6 11 3 2.7701 -0.6886
-6 11 4 0.8157 1.0175
-6 11 5 0.0326 -0.7320
-6 11 6 2.6763 0.7666
-6 11 7 -1.4805 -0.9324
-6 11 8 1.4278 0.8059
-6 11 9 -6.3108 -1.3103
-6 11 10 0.0648 -0.0911
-6 11 11 -2.8644 -0.5124
-6 11 12 1.5440 0.2862
-6 11 13 3.2347 -1.6114
-6 11 14 -0.3987 0.2063
-6 11 15 -0.5810 -0.3935
-6 11 16 -2.3894 0.0168
-6 12 -5 -1.5691 -0.7116
-6 12 -4 -2.1501 -0.5531
-6 12 -3 -1.5785 0.0124
-6 12 -2 -2.8596 -0.7498
-6 12 -1 -1.2331 -0.0579
-6 12 0 -0.9716 0.3637
-6 12 1 -2.2737 -0.8357
-6 12 2 -2.3461 -0.3262
-6 12 3 -3.4785 -1.5037
-6 12 4 -1.8070 0.4158
-6 12 5 -2.4368 -1.4977
-6 12 6 1.0938 0.2539
-6 12 7 -1.9721 -0.9610
-6 12 8 4.7177 0.8138
-6 12 9 0.4407 -0.7946
-6 12 10 4.8802 0.6588
-6 12 11 -1.1730 0.0221
-6 12 12 -0.1725 0.4619
-6 12 13 0.4445 -0.4719
-6 12 14 -2.2547 1.0956
-6 12 15 -0.0924 -0.3645
-6 13 -5 1.5301 0.8182
-6 13 -4 1.0796 0.3842
-6 13 -3 1.3173 0.9305
-6 13 -2 0.8811 -0.3012
-6 13 -1 1.0106 0.2698
-6 13 0 0.6815 -0.0898
-6 13 1 1.6299 0.2874
-6 13 2 1.1249 0.8186
-6 13 3 1.4225 0.6440
-6 13 4 2.7652 1.1593
-6 13 5 0.9759 -0.1604
-6 13 6 1.4616 0.7181
-6 13 7 -2.9548 0.6439
-6 13 8 -0.4879 0.5012
-6 13 9 -3.9259 -0.5201
-6 13 10 0.1041 0.4251
-6 13 11 -2.9035 0.3847
-6 13 12 1.2334 -0.3931
-6 13 13 -0.2083 -0.1076
-6 13 14 0.1439 0.7058
-6 14 -5 -1.5006 0.9681
-6 14 -4 -1.1880 -0.2783
-6 14 -3 0.1995 -0.1728
-6 14 -2 0.4397 -0.2716
-6 14 -1 -1.0611 0.5991
-6 14 0 -1.3033 -0.0838
-6 14 1 1.1931 0.1036
-6 14 2 -0.5241 -0.8605
-6 14 3 -0.5026 0.0765
-6 14 4 -0.8580 -0.2346
-6 14 5 -1.3435 0.0499
-6 14 6 0.2019 -0.8110
-6 14 7 0.7097 0.2957
-6 14 8 2.0294 -0.7896
-6 14 9 0.6866 -0.2723
-6 14 10 2.0758 -0.1752
-6 14 11 -1.2066 0.2681
-6 14 12 3.3858 -1.3401
-6 14 13 -1.8892 0.4691
-6 15 -5 1.7204 -0.1960
-6 15 -4 -0.3579 -0.8279
-6 15 -3 -0.9847 -0.3435
-6 15 -2 0.6997 0.0904
-6 15 -1 -0.2453 -0.1740
-6 15 0 -0.7918 -0.4038
-6 15 1 0.6124 0.4639
-6 15 2 -2.2959 -0.6108
-6 15 3 0.1082 0.3953
-6 15 4 0.3534 -1.4380
-6 15 5 0.2527 0.3673
-6 15 6 -0.4580 -0.8276
-6 15 7 0.1215 0.9011
-6 15 8 -0.7990 -0.4740
-6 15 9 0.2997 0.5413
-6 15 10 0.1571 0.3365
-6 15 11 -2.3875 1.1073
-6 16 -5 0.9999 1.6491
-6 16 -4 0.1811 0.4585
-6 16 -3 -0.7471 0.2788
-6 16 -2 1.4505 0.6595
-6 16 -1 0.1499 -0.1920
-6 16 0 -0.0565 -0.1760
-6 16 1 2.7535 0.1462
-6 16 2 -0.5556 0.0007
-6 16 3 1.1862 1.7507
-6 16 4 -0.1657 -0.0879
-6 16 5 0.4587 1.8133
-6 16 6 0.2520 0.0409
-6 16 7 0.2463 0.6205
-6 16 8 -2.2139 -0.1112
-6 16 9 0.4329 -0.2825
-6 17 -5 -0.4207 -0.8755
-6 17 -4 0.3349 -1.1400
-6 17 -3 -0.9589 -0.5500
-6 17 -2 1.1404 -0.0810
-6 17 -1 -0.6443 -0.2832
-6 17 0 -2.5988 0.5721
-6 17 1 0.6874 -0.0355
-6 17 2 -1.2307 -0.6726
-6 17 3 1.0868 -0.6285
-6 17 4 -0.7710 -2.1656
-6 17 5 -0.6688 -0.2441
-6 17 6 -0.2873 -1.1043
-6 17 7 0.8426 -1.3525
-6 18 -1 1.1717 -0.2484
-6 18 0 -0.6393 -0.1799
-6 18 1 1.8018 -0.3817
-5 0 -3 4.9337 -4.3062
-5 0 -1 -5.0064 1.7375
-5 0 1 6.9676 5.1524
-5 0 3 1.8840 5.8554
-5 0 5 5.5749 2.3364
-5 0 7 4.2081 2.5841
-5 0 9 -5.1792 4.1927
-5 0 11 -0.3246 1.8252
-5 0 13 -1.0027 2.3029
-5 0 15 0.9336 0.3032
-5 0 17 2.7774 1.6513
-5 0 19 2.0719 0.5219
-5 0 21 -1.6561 0.9408
-5 1 -4 -8.0198 2.3846
-5 1 -3 -7.8907 -2.7103
-5 1 -2 1.5793 2.1118
-5 1 -1 -2.9191 -1.8346
-5 1 0 -2.1246 -4.0194
-5 1 1 -4.0434 -2.1283
-5 1 2 -4.9574 -4.1600
-5 1 3 -8.0929 -2.8032
-5 1 4 -1.5252 -3.4679
-5 1 5 -12.8839 -1.2088
-5 1 6 -5.9635 -0.6697
-5 1 7 -1.6224 -2.9492
-5 1 8 2.3363 -2.9187
-5 1 9 2.5045 -0.3462
-5 1 10 3.0544 -2.2092
-5 1 11 3.1740 -1.9741
-5 1 12 -0.5074 -1.4389
-5 1 13 1.1852 -0.6137
-5 1 14 1.2046 -0.5341
-5 1 15 -1.6244 -0.3910
-5 1 16 -2.6022 -0.6341
-5 1 17 1.7703 -0.9962
-5 1 18 -2.2341 -0.7947
-5 1 19 -0.6219 0.3250
-5 1 20 -0.8537 -0.8721
-5 1 21 -1.7612 -1.0304
-5 2 -4 24.6735 0.2353
-5 2 -3 0.8744 -1.4139
-5 2 -2 6.1584 1.0493
-5 2 -1 4.8267 1.7311
-5 2 0 6.1451 -1.4504
-5 2 1 2.8099 3.2078
-5 2 2 9.1662 1.5647
-5 2 3 1.9011 1.4697
-5 2 4 19.6906 -0.7049
-5 2 5 1.5067 1.0207
-5 2 6 11.9617 0.7210
-5 2 7 0.4171 0.0512
-5 2 8 -2.3190 0.4934
-5 2 9 -4.1853 1.7004
-5 2 10 -2.7729 -0.5236
-5 2 11 0.1695 1.2544
-5 2 12 -4.1179 1.3221
-5 2 13 -1.3336 -0.3597
-5 2 14 0.9046 -1.1610
-5 2 15 0.3353 0.3982
-5 2 16 0.4695 1.0003
-5 2 17 3.1863 0.0947
-5 2 18 -2.4671 -0.4081
-5 2 19 1.0672 0.4149
-5 2 20 3.0476 0.2468
-5 2 21 -1.5728 1.5641
-5 3 -4 8.3515 0.9159
-5 3 -3 -19.3572 -0.7350
-5 3 -2 -9.1177 -1.9271
-5 3 -1 -3.7012 0.8758
-5 3 0 -5.4671 -2.2576
-5 3 1 -8.8849 0.4116
-5 3 2 0.4906 -0.4368
-5 3 3 -16.9459 -0.6631
-5 3 4 -1.0019 0.6267
-5 3 5 -16.8345 0.9793
-5 3 6 1.5501 -0.0227
-5 3 7 -3.2014 -1.0367
-5 3 8 2.1844 1.0513
-5 3 9 0.5482 0.5939
-5 3 10 2.3909 -1.7364
-5 3 11 0.9987 -0.5415
-5 3 12 1.5176 0.8924
-5 3 13 2.8806 0.1320
-5 3 14 2.9417 0.5073
-5 3 15 -1.7163 0.2909
-5 3 16 -4.0343 -0.2535
-5 3 17 1.8139 -0.3837
-5 3 18 -1.2755 0.7067
-5 3 19 0.5120 0.2903
-5 3 20 -0.1094 -1.1596
-5 3 21 -2.6637 0.0076
-5 4 -4 20.6593 1.6566
-5 4 -3 -0.2002 2.7572
-5 4 -2 10.3851 0.6719
-5 4 -1 13.7497 2.1008
-5 4 0 1.0907 0.3526
-5 4 1 -1.8733 0.7012
-5 4 2 14.5591 1.2392
-5 4 3 0.7979 -1.7603
-5 4 4 11.9230 0.6079
-5 4 5 -1.6049 -0.5254
-5 4 6 4.2869 0.5206
-5 4 7 -0.8413 -1.3206
-5 4 8 2.8877 1.0951
-5 4 9 -2.4717 -0.0660
-5 4 10 4.6444 0.3141
-5 4 11 -3.8030 0.6071
-5 4 12 -0.6710 0.4248
-5 4 13 -6.9610 -1.7673
-5 4 14 -1.5505 0.3579
-5 4 15 1.8524 0.3087
-5 4 16 0.1048 -0.1423
-5 4 17 4.2093 -0.6978
-5 4 18 -2.5243 0.4649
-5 4 19 -0.4575 -0.0187
-5 4 20 1.1593 -0.3211
-5 4 21 1.0461 0.4438
-5 5 -4 3.4701 -0.4810
-5 5 -3 -15.1913 -1.7871
-5 5 -2 -10.7791 -2.7050
-5 5 -1 0.8180 -1.4119
-5 5 0 -3.4967 -0.7578
-5 5 1 -4.4170 -2.2363
-5 5 2 0.9928 0.8418
-5 5 3 -10.8875 -1.4100
-5 5 4 -0.4044 1.4795
-5 5 5 3.6910 -1.3433
-5 5 6 -0.0174 0.6409
-5 5 7 -1.7851 -1.0221
-5 5 8 -0.4097 0.7421
-5 5 9 -8.8089 -1.6467
-5 5 10 5.1563 -0.6187
-5 5 11 -5.2196 0.0261
-5 5 12 9.7230 0.5272
-5 5 13 1.5703 -1.1141
-5 5 14 5.2291 0.8447
-5 5 15 1.1958 -0.1553
-5 5 16 -6.3630 -0.1024
-5 5 17 2.9397 -0.1469
-5 5 18 -1.0979 0.2516
-5 5 19 0.3709 -0.5340
-5 5 20 -1.5695 0.3387
-5 5 21 -1.0886 1.0295
-5 6 -4 -0.8675 0.9871
-5 6 -3 7.2892 0.8801
-5 6 -2 6.0289 1.0002
-5 6 -1 3.3623 0.9999
-5 6 0 -6.3350 2.5088
-5 6 1 0.0087 -0.2476
-5 6 2 6.7806 1.3142
-5 6 3 2.4717 -0.7801
-5 6 4 -5.0306 1.1892
-5 6 5 0.1439 -0.8961
-5 6 6 -8.4787 0.7827
-5 6 7 3.3030 0.1810
-5 6 8 8.2643 1.1854
-5 6 9 -2.9383 0.2003
-5 6 10 9.6891 0.5717
-5 6 11 -9.7571 0.4633
-5 6 12 1.3302 0.0485
-5 6 13 -10.0123 -0.2365
-5 6 14 -0.9035 0.9357
-5 6 15 0.8564 -0.5831
-5 6 16 -4.1064 -0.3107
-5 6 17 4.9600 0.8657
-5 6 18 -2.1080 0.6637
-5 6 19 1.7062 -0.5509
-5 6 20 1.4947 -0.4693
-5 7 -4 -9.9550 0.3873
-5 7 -3 0.2428 0.4325
-5 7 -2 -2.6273 0.2431
-5 7 -1 3.7074 -0.9351
-5 7 0 3.7696 0.1295
-5 7 1 3.8367 -0.7083
-5 7 2 -5.3856 0.1470
-5 7 3 1.1842 0.2723
-5 7 4 -1.6974 0.5214
-5 7 5 13.5222 -0.2256
-5 7 6 -1.7346 -0.1830
-5 7 7 1.1058 0.1382
-5 7 8 -1.8145 -1.0519
-5 7 9 -10.6828 -0.2116
-5 7 10 7.2776 -0.1255
-5 7 11 -3.9078 0.3439
-5 7 12 8.7178 -0.9460
-5 7 13 -0.1802 0.0597
-5 7 14 4.5115 0.6818
-5 7 15 2.1902 -0.0840
-5 7 16 -2.1869 -0.6051
-5 7 17 4.5919 0.0464
-5 7 18 -4.7660 -0.7617
-5 7 19 -1.1340 0.0416
-5 7 20 -1.1633 0.8647
-5 8 -4 -8.3411 -1.5986
-5 8 -3 7.9192 -1.0245
-5 8 -2 -2.9786 -0.9851
-5 8 -1 -7.3779 -0.8914
-5 8 0 -5.7512 -0.6365
-5 8 1 0.9042 -0.2522
-5 8 2 -3.3467 -1.5693
-5 8 3 6.5767 0.0498
-5 8 4 -8.1496 -0.9967
-5 8 5 -0.2763 -0.1407
-5 8 6 -8.8990 -0.7701
-5 8 7 1.7447 1.2637
-5 8 8 4.6016 -1.0724
-5 8 9 -0.8848 0.4132
-5 8 10 5.5232 -0.3682
-5 8 11 -5.9211 0.5270
-5 8 12 0.5101 -0.8148
-5 8 13 -2.2418 0.2213
-5 8 14 0.1941 -0.4277
-5 8 15 -2.5471 -0.3096
-5 8 16 -2.8136 0.0545
-5 8 17 3.6736 1.1927
-5 8 18 -1.1957 -0.5246
-5 8 19 3.1424 -0.0078
-5 9 -4 -5.7312 0.9879
-5 9 -3 6.4587 1.6893
-5 9 -2 2.0169 0.8840
-5 9 -1 3.7714 1.6358
-5 9 0 6.2440 0.9304
-5 9 1 4.0663 2.0967
-5 9 2 -4.4063 -0.0643
-5 9 3 3.8534 1.7485
-5 9 4 -3.7275 0.0871
-5 9 5 6.5044 0.9427
-5 9 6 1.6940 -0.5085
-5 9 7 2.6013 1.3752
-5 9 8 -2.7719 -0.7406
-5 9 9 -2.9765 0.8687
-5 9 10 0.1279 0.0448
-5 9 11 -1.2969 0.4272
-5 9 12 -0.6207 -0.0775
-5 9 13 -0.7491 1.0164
-5 9 14 -0.3459 0.3525
-5 9 15 -0.5029 -0.1633
-5 9 16 0.5177 -0.2155
-5 9 17 0.2339 0.5036
-5 9 18 -3.6791 -0.6622
-5 9 19 0.5622 0.2942
-5 10 -4 -1.4018 -0.0704
-5 10 -3 -0.1525 -0.2254
-5 10 -2 -5.0848 -1.4479
-5 10 -1 -3.7296 -0.4951
-5 10 0 -1.9427 -1.7280
-5 10 1 -3.2356 -0.4692
-5 10 2 -1.9367 -1.2896
-5 10 3 3.7468 0.0479
-5 10 4 -0.9330 -0.7119
-5 10 5 1.3257 -0.0994
-5 10 6 -2.9245 -0.6954
-5 10 7 0.4623 0.3024
-5 10 8 -1.2677 -0.8478
-5 10 9 5.6096 -0.0286
-5 10 10 0.2555 -0.0593
-5 10 11 3.2318 -0.6221
-5 10 12 1.3770 -0.5558
-5 10 13 4.4312 -0.4259
-5 10 14 1.5551 -0.0238
-5 10 15 1.0331 -0.4809
-5 10 16 2.7770 0.0655
-5 10 17 1.6785 0.0738
-5 10 18 -0.4737 -0.4479
-5 11 -4 2.4304 -0.1323
-5 11 -3 1.4175 -0.2817
-5 11 -2 1.2745 -0.5271
-5 11 -1 2.5183 0.7904
-5 11 0 2.1615 -0.0021
-5 11 1 0.4197 0.1451
-5 11 2 3.2716 0.1789
-5 11 3 -1.9408 -0.1718
-5 11 4 -4.1626 0.1078
-5 11 5 -1.2609 -0.0801
-5 11 6 -1.7143 0.3274
-5 11 7 1.9922 0.0951
-5 11 8 -4.9890 -0.0110
-5 11 9 1.8564 -0.1035
-5 11 10 -6.6166 0.6780
-5 11 11 -0.9452 -0.1556
-5 11 12 -5.5123 0.7836
-5 11 13 -1.7401 -0.0850
-5 11 14 -5.2024 0.5090
-5 11 15 -3.4896 -0.3487
-5 11 16 -2.1851 0.6763
-5 11 17 -1.8550 -0.0125
-5 12 -4 2.4667 0.6850
-5 12 -3 -4.0658 0.6869
-5 12 -2 -0.8482 0.7752
-5 12 -1 1.2775 0.9569
-5 12 0 -0.9446 0.6808
-5 12 1 -3.7684 0.1525
-5 12 2 1.8459 1.1311
-5 12 3 -0.3959 -0.0309
-5 12 4 3.9176 0.6922
-5 12 5 5.3792 -0.3565
-5 12 6 0.6573 0.5961
-5 12 7 3.6690 -0.2690
-5 12 8 -2.0931 0.3645
-5 12 9 5.8692 -0.0948
-5 12 10 -0.4608 0.3316
-5 12 11 5.3953 -0.7668
-5 12 12 1.5397 0.4458
-5 12 13 6.9443 -0.3002
-5 12 14 1.8676 0.1567
-5 12 15 4.7914 -0.5903
-5 12 16 3.2685 0.4373
-5 13 -4 1.9220 -0.7978
-5 13 -3 -2.0713 -0.8982
-5 13 -2 1.6859 -0.8537
-5 13 -1 0.1801 -1.4065
-5 13 0 -0.2537 -0.6634
-5 13 1 -0.4576 -1.3036
-5 13 2 2.7127 -0.2415
-5 13 3 -2.7721 -0.9030
-5 13 4 -3.7429 -0.0683
-5 13 5 -2.2415 -0.7813
-5 13 6 -4.8583 0.3761
-5 13 7 -0.0043 -0.6485
-5 13 8 -2.8144 -0.1585
-5 13 9 1.0749 -0.1583
-5 13 10 -2.8764 0.0342
-5 13 11 -0.8611 -0.5068
-5 13 12 -5.5107 0.1733
-5 13 13 -0.3843 -0.0619
-5 13 14 -7.3007 -0.1324
-5 13 15 -1.3578 -0.0628
-5 14 -4 0.9770 0.0380
-5 14 -3 -2.0838 0.5958
-5 14 -2 1.5895 0.8716
-5 14 -1 -1.2688 0.2169
-5 14 0 1.0812 1.2630
-5 14 1 -0.6599 0.3319
-5 14 2 1.1124 0.4459
-5 14 3 0.7339 0.4832
-5 14 4 0.1759 0.4682
-5 14 5 4.4143 0.0597
-5 14 6 0.8734 0.6118
-5 14 7 1.5362 -0.0216
-5 14 8 0.6811 0.1417
-5 14 9 -0.9419 0.4295
-5 14 10 -0.3753 0.1795
-5 14 11 1.4632 0.1545
-5 14 12 0.3718 0.2240
-5 14 13 6.7655 0.4449
-5 14 14 -1.2179 -0.4519
-5 15 -4 -0.7273 0.0658
-5 15 -3 -0.3165 0.2392
-5 15 -2 2.4289 0.1992
-5 15 -1 -2.5469 -0.3984
-5 15 0 1.7738 0.2752
-5 15 1 -2.3758 -0.1810
-5 15 2 0.1298 -0.3680
-5 15 3 1.2952 0.2376
-5 15 4 -1.8876 -0.4128
-5 15 5 2.0757 -0.2982
-5 15 6 -2.1559 -0.1671
-5 15 7 -1.9032 -0.0039
-5 15 8 3.3035 -0.1353
-5 15 9 -0.5810 0.0051
-5 15 10 2.6294 -0.1981
-5 15 11 0.7695 -0.2597
-5 15 12 -2.8059 -0.3224
-5 15 13 0.5022 0.2670
-5 16 -4 -0.0595 0.0458
-5 16 -3 0.2821 -0.6052
-5 16 -2 0.9035 -0.8306
-5 16 -1 -3.1424 -0.6032
-5 16 0 4.5091 -0.2797
-5 16 1 -1.7336 -0.1651
-5 16 2 0.6760 -0.5505
-5 16 3 -0.9928 -0.0006
-5 16 4 -3.5542 -0.1405
-5 16 5 2.2425 0.2804
-5 16 6 -1.0483 -0.2274
-5 16 7 -1.6137 0.1506
-5 16 8 2.5385 -0.4391
-5 16 9 -5.6273 -0.4587
-5 16 10 -0.7505 0.2552
-5 16 11 -0.5191 -0.0869
-5 17 -4 -0.7207 0.6794
-5 17 -3 0.8545 0.5534
-5 17 -2 0.8885 0.8627
-5 17 -1 -3.6347 1.0393
-5 17 0 2.7360 0.1515
-5 17 1 -3.2075 0.6552
-5 17 2 3.0938 0.5537
-5 17 3 1.5110 0.3847
-5 17 4 0.1702 0.4891
-5 17 5 2.3324 0.2499
-5 17 6 -1.9167 -0.3366
-5 17 7 -0.2858 1.0164
-5 17 8 4.7325 0.6515
-5 17 9 -1.7018 0.3894
-5 18 -4 0.6452 -0.1612
-5 18 -3 0.0909 -0.9890
-5 18 -2 1.1482 -0.6344
-5 18 -1 -0.8328 -0.2482
-5 18 0 3.8115 -0.9626
-5 18 1 -3.1027 -0.1263
-5 18 2 -0.2079 -0.4239
-5 18 3 -2.3358 -1.3064
-5 18 4 0.0442 -0.2530
-5 18 5 2.0932 -0.2294
-5 18 6 -1.0169 -0.9143
-4 0 -2 -5.0107 -15.4183
-4 0 0 25.4181 -19.6878
-4 0 2 1.9786 -19.0038
-4 0 4 14.2781 -12.9141
-4 0 6 28.9712 -14.3338
-4 0 8 -1.1567 -10.5015
-4 0 10 -16.9263 -10.9338
-4 0 12 -10.5374 -6.3601
-4 0 14 2.2499 -5.8043
-4 0 16 -6.5197 -3.2012
-4 0 18 -2.4829 -2.7865
-4 0 20 8.4756 -2.5218
-4 0 22 3.3327 -0.2187
-4 1 -3 7.0998 10.6435
-4 1 -2 -1.1757 4.8370
-4 1 -1 -11.7571 12.6576
-4 1 0 0.9315 5.7844
-4 1 1 -14.4382 17.4931
-4 1 2 11.6090 2.8296
-4 1 3 -2.7467 11.6135
-4 1 4 -3.5270 5.5697
-4 1 5 -24.4566 10.6001
-4 1 6 -3.1992 2.3969
-4 1 7 -13.0896 10.0812
-4 1 8 -3.3426 3.7070
-4 1 9 11.7404 8.4957
-4 1 10 -1.0562 2.7770
-4 1 11 14.4668 7.0286
-4 1 12 -5.6867 1.4592
-4 1 13 1.7221 4.5053
-4 1 14 -4.6880 2.3942
-4 1 15 1.7420 3.7888
-4 1 16 6.8874 0.0470
-4 1 17 6.3834 2.0319
-4 1 18 -0.0210 1.4198
-4 1 19 -4.3537 2.6900
-4 1 20 -0.6321 0.0022
-4 1 21 -5.1231 0.8339
-4 1 22 3.0448 0.6361
-4 2 -3 -13.6008 -1.9083
-4 2 -2 4.4030 -6.6506
-4 2 -1 8.1535 -4.3161
-4 2 0 6.0161 -8.5255
-4 2 1 -12.5306 -1.4979
-4 2 2 7.5865 -9.6284
-4 2 3 -7.8430 -1.7603
-4 2 4 10.8706 -4.9686
-4 2 5 8.4945 -2.8050
-4 2 6 13.4442 -5.8106
-4 2 7 4.6776 -0.1475
-4 2 8 -2.0837 -6.2156
-4 2 9 3.2831 -3.3816
-4 2 10 -12.8644 -3.9681
-4 2 11 4.2138 0.2709
-4 2 12 -4.4949 -3.7591
-4 2 13 11.5080 -2.0700
-4 2 14 -1.4523 -2.0326
-4 2 15 -4.1635 -0.2412
-4 2 16 -4.8074 -1.4499
-4 2 17 -7.9809 -0.3553
-4 2 18 0.6464 -1.8690
-4 2 19 1.7896 -0.7816
-4 2 20 2.3773 -0.8040
-4 2 21 -4.2609 0.1650
-4 2 22 1.2898 -0.9874
-4 3 -3 -16.4643 -0.3710
-4 3 -2 3.4282 0.6303
-4 3 -1 3.2054 2.2079
-4 3 0 -6.1733 2.5471
-4 3 1 3.0310 2.5109
-4 3 2 13.1278 -0.3609
-4 3 3 -11.6197 2.3641
-4 3 4 -0.7385 1.8594
-4 3 5 -3.0731 -1.0170
-4 3 6 -9.5589 0.1128
-4 3 7 -0.3670 3.0669
-4 3 8 -2.3105 1.1817
-4 3 9 7.1542 1.2393
-4 3 10 -2.6597 0.8947
-4 3 11 4.8617 0.7006
-4 3 12 -9.7888 0.0971
-4 3 13 1.8450 1.4169
-4 3 14 -3.2348 1.1806
-4 3 15 4.2314 -0.9174
-4 3 16 9.4442 -0.2907
-4 3 17 -0.5849 1.3654
-4 3 18 4.7015 0.6991
-4 3 19 -0.6509 0.0468
-4 3 20 3.3209 -0.0242
-4 3 21 1.7928 0.6214
-4 3 22 3.8461 0.5209
-4 4 -3 -9.3190 0.4075
-4 4 -2 11.2725 1.2276
-4 4 -1 4.4338 -0.7958
-4 4 0 -20.0190 1.6015
-4 4 1 7.2710 -1.0379
-4 4 2 1.6212 1.7070
-4 4 3 -8.7794 -0.2911
-4 4 4 5.0662 3.1861
-4 4 5 6.0645 -0.9530
-4 4 6 -6.4897 2.5436
-4 4 7 5.5999 -0.5582
-4 4 8 -4.0164 -0.5881
-4 4 9 -2.3432 -0.4017
-4 4 10 -2.1308 2.3827
-4 4 11 6.6118 -0.6373
-4 4 12 -2.3080 -0.1699
-4 4 13 3.8395 -0.0815
-4 4 14 -4.2824 1.6340
-4 4 15 -4.3555 -0.5371
-4 4 16 1.0121 0.6792
-4 4 17 -7.9582 -0.0992
-4 4 18 1.2933 -0.2229
-4 4 19 -7.1401 -0.0791
-4 4 20 -2.5428 0.3937
-4 4 21 -4.2906 -0.5274
-4 4 22 -1.1271 -0.6399
-4 5 -3 -17.0089 -2.7308
-4 5 -2 6.3923 0.1861
-4 5 -1 11.3866 -1.2486
-4 5 0 -13.7811 0.1941
-4 5 1 19.7591 -3.4373
-4 5 2 -6.4427 0.9763
-4 5 3 -2.4174 -3.7157
-4 5 4 5.6538 -0.0682
-4 5 5 3.3812 -4.2426
-4 5 6 -7.0086 1.4847
-4 5 7 8.2946 -1.7288
-4 5 8 3.0741 -0.4393
-4 5 9 -0.3144 -1.6963
-4 5 10 0.2025 0.5439
-4 5 11 -0.2781 -2.0755
-4 5 12 -3.2232 0.3024
-4 5 13 5.9896 -1.0402
-4 5 14 3.0193 -0.4305
-4 5 15 -1.4362 -1.6950
-4 5 16 4.4754 0.8333
-4 5 17 -2.6632 -0.4751
-4 5 18 9.7379 -0.6781
-4 5 19 1.3374 -0.1788
-4 5 20 5.9936 0.7255
-4 5 21 1.6504 -0.0150
-4 6 -3 0.7493 0.0560
-4 6 -2 -0.2163 0.5995
-4 6 -1 1.5504 0.4392
-4 6 0 -20.0097 1.2428
-4 6 1 16.8133 -0.0828
-4 6 2 -12.5135 3.1766
-4 6 3 1.0602 0.2215
-4 6 4 0.1125 2.7608
-4 6 5 -2.2374 -0.2341
-4 6 6 -5.5963 2.5359
-4 6 7 1.1499 -0.4088
-4 6 8 -3.7119 1.1720
-4 6 9 -4.8165 1.0624
-4 6 10 4.3588 1.1055
-4 6 11 0.0979 -0.7718
-4 6 12 -4.1072 1.8080
-4 6 13 -2.2853 1.0513
-4 6 14 -1.4634 0.4993
-4 6 15 -2.0368 -0.2475
-4 6 16 5.2030 1.1488
-4 6 17 -6.8105 0.2802
-4 6 18 0.0509 0.0735
-4 6 19 -7.4177 0.1299
-4 6 20 -0.6774 -0.4045
-4 6 21 -1.5137 -0.4596
-4 7 -3 -0.5882 0.9191
-4 7 -2 -1.8491 -0.3558
-4 7 -1 11.7804 0.3133
-4 7 0 -6.1243 -0.9732
-4 7 1 13.8358 -0.8091
-4 7 2 -11.0683 -0.6014
-4 7 3 5.9631 -1.1001
-4 7 4 2.1060 -1.1589
-4 7 5 0.5334 -0.6515
-4 7 6 2.3525 -0.0816
-4 7 7 3.4160 -1.2074
-4 7 8 1.2196 -0.9555
-4 7 9 -1.9035 0.7340
-4 7 10 3.3457 -0.6255
-4 7 11 -1.8361 -0.9789
-4 7 12 2.2980 -0.3541
-4 7 13 2.2407 -0.5286
-4 7 14 0.5886 -0.8632
-4 7 15 -3.9806 0.1973
-4 7 16 2.5571 -0.1979
-4 7 17 -3.4825 -0.7257
-4 7 18 6.3056 -0.3052
-4 7 19 0.2934 1.1647
-4 7 20 1.2241 0.0628
-4 8 -3 3.2548 0.4841
-4 8 -2 -9.0794 -1.0192
-4 8 -1 2.6642 1.1011
-4 8 0 -8.8719 -0.4713
-4 8 1 3.7256 0.7823
-4 8 2 -3.6768 -0.3244
-4 8 3 5.6324 1.3294
-4 8 4 -2.3543 -0.9478
-4 8 5 -4.4667 1.3701
-4 8 6 -0.1691 -0.0987
-4 8 7 0.1571 0.4629
-4 8 8 0.9528 -0.8859
-4 8 9 -0.2557 1.0110
-4 8 10 1.9533 -1.1479
-4 8 11 -3.2201 0.6946
-4 8 12 2.2225 0.6273
-4 8 13 -0.0500 0.3376
-4 8 14 2.2107 -0.7387
-4 8 15 1.0154 0.8976
-4 8 16 4.2612 0.0637
-4 8 17 -3.3013 -0.0105
-4 8 18 2.2577 -0.6733
-4 8 19 -1.7453 0.1303
-4 8 20 -1.5008 -0.7654
-4 9 -3 3.6635 0.3337
-4 9 -2 -4.5330 -0.9796
-4 9 -1 8.8896 0.6564
-4 9 0 1.3155 -0.5030
-4 9 1 -0.1971 0.7005
-4 9 2 -3.2325 -0.4088
-4 9 3 -1.8832 1.0928
-4 9 4 -0.2482 -1.2335
-4 9 5 2.1906 1.2229
-4 9 6 1.3724 -0.6318
-4 9 7 -2.9331 0.9505
-4 9 8 -4.3791 -0.1005
-4 9 9 -1.1897 1.5972
-4 9 10 1.0064 -0.8480
-4 9 11 -2.2375 0.5305
-4 9 12 0.1844 0.1462
-4 9 13 -4.8024 0.0800
-4 9 14 -2.3011 -0.4095
-4 9 15 -2.6470 0.5169
-4 9 16 -0.6742 -0.2495
-4 9 17 -3.7973 0.5120
-4 9 18 2.3131 0.3559
-4 9 19 0.4079 0.6723
-4 10 -3 0.6634 0.3509
-4 10 -2 -3.4883 0.1432
-4 10 -1 0.4350 0.1184
-4 10 0 -4.0674 -0.6816
-4 10 1 -0.7859 -0.3266
-4 10 2 5.8286 -0.4659
-4 10 3 2.4564 -0.1663
-4 10 4 0.6684 -0.8114
-4 10 5 -1.0181 0.0942
-4 10 6 0.3871 -1.1515
-4 10 7 5.8201 -0.4349
-4 10 8 3.3247 -0.9768
-4 10 9 3.4686 -0.0322
-4 10 10 -0.2365 -0.9693
-4 10 11 0.4641 -0.2325
-4 10 12 4.5056 -0.1035
-4 10 13 2.3585 -0.4447
-4 10 14 3.8105 0.1243
-4 10 15 2.4618 0.0149
-4 10 16 2.3108 -0.7074
-4 10 17 -0.7277 -0.4736
-4 10 18 1.3717 -0.2725
-4 10 19 -1.5252 -0.0138
-4 11 -3 -0.2235 -0.5556
-4 11 -2 1.0090 0.5819
-4 11 -1 2.4752 0.0912
-4 11 0 1.1806 0.5948
-4 11 1 0.5140 0.4025
-4 11 2 -2.6741 0.7186
-4 11 3 -4.6130 -0.1754
-4 11 4 -0.8356 1.0706
-4 11 5 -0.6177 0.6552
-4 11 6 -3.6332 0.7753
-4 11 7 -2.2423 0.4501
-4 11 8 -7.2330 0.6079
-4 11 9 -0.0199 0.3595
-4 11 10 -1.9478 0.5862
-4 11 11 -0.8766 0.2618
-4 11 12 -2.4012 0.6001
-4 11 13 -4.1774 -0.5746
-4 11 14 -1.9923 0.5255
-4 11 15 -1.8043 0.2468
-4 11 16 -1.0815 0.5016
-4 11 17 -0.7839 0.3167
-4 11 18 2.6535 0.1394
-4 12 -3 -1.0071 -0.6037
-4 12 -2 1.7815 0.2216
-4 12 -1 -2.5750 -0.9886
-4 12 0 -2.7532 -0.2896
-4 12 1 1.2932 -0.3683
-4 12 2 -0.0947 0.2472
-4 12 3 3.8932 -1.0186
-4 12 4 3.0256 0.1147
-4 12 5 1.5223 -1.0520
-4 12 6 1.8537 -0.1009
-4 12 7 5.9028 -0.4492
-4 12 8 -0.4239 0.3321
-4 12 9 4.6853 -0.7316
-4 12 10 -1.3511 0.0557
-4 12 11 2.0274 -0.3890
-4 12 12 1.9433 0.5919
-4 12 13 1.0555 -0.4778
-4 12 14 2.1941 0.1808
-4 12 15 0.8158 -0.5844
-4 12 16 -0.1776 -0.1873
-4 12 17 -1.0187 -0.0134
-4 13 -3 0.1619 0.1326
-4 13 -2 1.7036 0.5995
-4 13 -1 -0.2193 0.1554
-4 13 0 1.5631 0.3344
-4 13 1 2.4557 0.0240
-4 13 2 -3.1243 0.0637
-4 13 3 -0.1809 -0.3116
-4 13 4 -3.2695 0.4878
-4 13 5 -2.7936 -0.0923
-4 13 6 -1.6154 -0.1127
-4 13 7 -0.1112 -0.4531
-4 13 8 -4.6542 0.2881
-4 13 9 2.7698 -0.4922
-4 13 10 -2.6832 0.1410
-4 13 11 0.5071 -0.6673
-4 13 12 -0.1355 -0.0150
-4 13 13 -1.5518 -0.2677
-4 13 14 1.1817 0.4106
-4 13 15 -0.5018 0.0644
-4 13 16 -0.7111 -0.1484
-4 14 -3 -0.6665 -0.1496
-4 14 -2 -1.2769 -0.2014
-4 14 -1 -0.0298 0.0780
-4 14 0 0.0671 -0.2355
-4 14 1 -0.7863 0.2333
-4 14 2 -0.7866 0.1694
-4 14 3 2.9340 0.3887
-4 14 4 0.3035 0.2306
-4 14 5 0.8376 0.6914
-4 14 6 1.5447 0.1507
-4 14 7 1.2529 0.5134
-4 14 8 -1.9554 0.3487
-4 14 9 2.6029 0.1765
-4 14 10 -2.3528 0.8335
-4 14 11 -0.1747 0.3978
-4 14 12 -0.3398 0.3721
-4 14 13 -2.5395 -0.1663
-4 14 14 1.2251 -0.0672
-4 14 15 -0.5106 0.2834
-4 15 -3 1.3100 -0.1587
-4 15 -2 -2.2522 -0.5654
-4 15 -1 1.4010 0.2960
-4 15 0 -0.8024 -0.2702
-4 15 1 -2.0056 0.0494
-4 15 2 0.7341 -0.5178
-4 15 3 0.8201 -0.2160
-4 15 4 -0.6162 -0.7541
-4 15 5 -0.0493 -0.2481
-4 15 6 0.5024 -0.7676
-4 15 7 -0.4950 0.2341
-4 15 8 -1.0755 -0.6066
-4 15 9 1.9239 -0.5329
-4 15 10 1.0751 -0.6220
-4 15 11 1.9771 -0.6071
-4 15 12 2.5669 0.1327
-4 15 13 0.4517 -0.0610
-4 15 14 1.9598 -0.0962
-4 16 -3 -0.3631 0.8125
-4 16 -2 -2.2075 -0.0724
-4 16 -1 4.8659 0.2289
-4 16 0 0.7643 0.0817
-4 16 1 0.2727 0.1895
-4 16 2 1.2053 -0.1184
-4 16 3 -1.0173 0.3357
-4 16 4 -1.6535 0.3753
-4 16 5 -1.0181 0.1290
-4 16 6 0.9488 -0.0309
-4 16 7 0.1648 0.3606
-4 16 8 0.2047 -0.2201
-4 16 9 -1.5303 0.9118
-4 16 10 -1.5787 0.5894
-4 16 11 -3.7362 0.0260
-4 16 12 -2.2530 0.2768
-4 17 -3 -0.3564 0.1165
-4 17 -2 -3.3799 -0.2064
-4 17 -1 1.2412 -0.3172
-4 17 0 -4.4434 0.3235
-4 17 1 -0.5740 -0.1592
-4 17 2 -0.3772 0.1229
-4 17 3 1.2692 0.3135
-4 17 4 0.5898 0.4670
-4 17 5 0.2273 -0.6083
-4 17 6 0.8800 0.5896
-4 17 7 -1.4292 0.2617
-4 17 8 0.7262 -0.5525
-4 17 9 0.2451 -0.2215
-4 17 10 4.1136 -0.6822
-4 18 -3 0.8655 0.0766
-4 18 -2 0.2065 -0.2532
-4 18 -1 4.4398 -0.6307
-4 18 0 -1.2663 0.8902
-4 18 1 3.0048 -0.6142
-4 18 2 -1.4556 -0.6016
-4 18 3 2.2637 -0.6097
-4 18 4 -1.0035 0.1949
-4 18 5 -0.3042 -0.8968
-4 18 6 0.8593 0.4340
-4 18 7 -1.3628 -0.4269
-4 18 8 0.6161 0.0318
-4 19 -3 0.0368 0.5105
-4 19 -2 -2.4970 0.8041
-4 19 -1 0.5758 -0.4230
-4 19 0 -2.5495 0.7795
-4 19 1 1.9949 -0.1612
-4 19 2 -3.5923 0.7819
-4 19 3 1.1935 0.6427
-4 19 4 -3.1724 0.4526
-3 0 -1 -10.3827 10.7189
-3 0 1 -35.8035 5.6970
-3 0 3 22.9590 9.7771
-3 0 5 19.1476 2.2334
-3 0 7 -17.5128 5.2485
-3 0 9 11.2210 4.3894
-3 0 11 7.9346 3.5540
-3 0 13 1.7704 2.1975
-3 0 15 6.9831 0.6011
-3 0 17 3.9886 2.2978
-3 0 19 2.9382 0.2351
-3 0 21 0.4909 0.7251
-3 0 23 2.0721 -0.1229
-3 1 -2 -9.0495 -10.7866
-3 1 -1 -20.0294 -5.5424
-3 1 0 30.1274 -5.4186
-3 1 1 -22.0237 -8.8159
-3 1 2 5.9647 -5.9955
-3 1 3 -10.3160 -4.4324
-3 1 4 -29.6454 -4.7010
-3 1 5 7.9907 -5.6175
-3 1 6 5.7431 -1.3797
-3 1 7 -7.7383 -4.7702
-3 1 8 6.0453 -4.6054
-3 1 9 -0.3414 -1.6025
-3 1 10 -12.4360 -2.6831
-3 1 11 10.6425 -3.9600
-3 1 12 -2.7540 -2.3301
-3 1 13 -0.3420 -0.5450
-3 1 14 -5.6703 -0.3249
-3 1 15 0.3585 -1.9738
-3 1 16 -4.5171 -1.4154
-3 1 17 -1.7213 -0.7440
-3 1 18 -4.3089 -0.9277
-3 1 19 1.4720 -0.3028
-3 1 20 -0.0040 -0.4672
-3 1 21 4.5148 -0.3411
-3 1 22 -1.0435 0.0310
-3 2 -2 23.9093 3.6424
-3 2 -1 -16.7529 7.1095
-3 2 0 38.1714 5.4317
-3 2 1 -11.3233 1.4838
-3 2 2 28.9834 5.9364
-3 2 3 14.0147 1.4642
-3 2 4 -4.3068 1.6401
-3 2 5 8.3653 1.1522
-3 2 6 -0.2207 5.7101
-3 2 7 -8.4892 0.1885
-3 2 8 12.6962 0.2147
-3 2 9 -0.0376 2.7183
-3 2 10 -13.1141 2.3537
-3 2 11 6.5396 0.9104
-3 2 12 -7.4688 1.6676
-3 2 13 5.7792 -0.1837
-3 2 14 0.2965 0.1356
-3 2 15 3.9319 0.4041
-3 2 16 0.8287 1.7543
-3 2 17 4.5086 0.2511
-3 2 18 2.7827 -0.3803
-3 2 19 2.2307 0.8436
-3 2 20 -7.4755 0.8834
-3 2 21 -3.0573 -0.2302
-3 2 22 -2.8481 -0.3567
-3 3 -2 6.5833 -2.2069
-3 3 -1 -39.6574 -1.7016
-3 3 0 11.1660 -2.9342
-3 3 1 -40.1867 -3.3312
-3 3 2 -10.1818 3.6894
-3 3 3 -6.0377 -1.3642
-3 3 4 -2.2713 0.5520
-3 3 5 4.0575 -2.4894
-3 3 6 -1.0685 1.1603
-3 3 7 -12.3259 -2.0352
-3 3 8 6.7788 0.9998
-3 3 9 1.1167 0.0400
-3 3 10 0.9462 -1.7400
-3 3 11 11.4163 -2.2075
-3 3 12 -6.4951 2.1225
-3 3 13 2.2847 0.0017
-3 3 14 -5.1824 -0.0881
-3 3 15 1.5737 -1.0336
-3 3 16 -3.0808 0.9047
-3 3 17 -5.2564 -0.3062
-3 3 18 -5.4727 -0.4778
-3 3 19 2.6874 -0.3251
-3 3 20 2.6554 -0.3302
-3 3 21 7.3626 -0.4012
-3 3 22 2.2556 1.1009
-3 4 -2 10.9933 0.8121
-3 4 -1 -15.7445 0.9000
-3 4 0 43.4028 -0.2956
-3 4 1 8.2083 -1.5216
-3 4 2 9.9294 -0.3756
-3 4 3 0.8716 -4.4338
-3 4 4 -3.6276 0.9868
-3 4 5 0.0005 -0.2951
-3 4 6 10.2423 0.6466
-3 4 7 -1.2249 -3.1015
-3 4 8 3.7451 0.8742
-3 4 9 -6.0460 0.5067
-3 4 10 -4.4028 0.5909
-3 4 11 0.6344 -1.0693
-3 4 12 -2.2672 0.8741
-3 4 13 3.9478 -1.6707
-3 4 14 -3.5959 0.3706
-3 4 15 4.6969 -0.4074
-3 4 16 1.5087 0.3176
-3 4 17 5.3893 -0.9534
-3 4 18 4.2814 0.4351
-3 4 19 3.2072 1.0807
-3 4 20 -5.6303 0.1977
-3 4 21 -4.1410 -0.9943
-3 4 22 -2.0397 0.4586
-3 5 -2 7.4789 1.3087
-3 5 -1 -20.3619 0.3334
-3 5 0 2.9966 0.1990
-3 5 1 -15.4590 2.9407
-3 5 2 -0.6769 2.3669
-3 5 3 9.8734 0.3604
-3 5 4 0.1062 1.6032
-3 5 5 -9.7428 0.9054
-3 5 6 -1.4473 0.9475
-3 5 7 -5.2113 0.1359
-3 5 8 4.4633 1.4096
-3 5 9 1.1469 -0.9142
-3 5 10 -0.0249 -0.2525
-3 5 11 -2.4656 0.5024
-3 5 12 3.6615 1.4031
-3 5 13 0.1267 -0.9989
-3 5 14 -3.2430 0.7567
-3 5 15 3.4223 0.5910
-3 5 16 -7.0042 0.6979
-3 5 17 -3.6117 -0.6060
-3 5 18 -6.2470 -0.4131
-3 5 19 -1.5943 0.0926
-3 5 20 -0.7429 -0.1390
-3 5 21 2.7611 -0.4328
-3 5 22 2.2953 0.6993
-3 6 -2 -8.0560 -1.7086
-3 6 -1 -3.7946 -0.6242
-3 6 0 7.2830 -1.8201
-3 6 1 -7.1535 0.3374
-3 6 2 -9.8883 -2.2774
-3 6 3 -1.9098 -0.5275
-3 6 4 1.4832 -1.1817
-3 6 5 6.6033 -0.0764
-3 6 6 7.0865 -2.3058
-3 6 7 -5.1980 0.2670
-3 6 8 -0.4085 0.4389
-3 6 9 2.4074 -0.4899
-3 6 10 3.0082 -1.0436
-3 6 11 -1.9338 0.5732
-3 6 12 4.3369 -0.0965
-3 6 13 -7.1245 -0.7833
-3 6 14 -0.2145 -0.3148
-3 6 15 6.7546 -0.3879
-3 6 16 -2.0638 -0.4623
-3 6 17 8.1528 0.5136
-3 6 18 4.0892 0.1851
-3 6 19 4.7836 0.1677
-3 6 20 1.5077 -0.2666
-3 6 21 -0.2450 0.2349
-3 7 -2 1.3887 -0.2839
-3 7 -1 10.1992 1.3060
-3 7 0 5.9300 -0.7391
-3 7 1 11.0246 1.3353
-3 7 2 9.8419 -1.0690
-3 7 3 2.8876 1.4570
-3 7 4 -7.6453 -0.0493
-3 7 5 -2.6309 2.1851
-3 7 6 -0.4007 -1.6791
-3 7 7 0.0522 1.5865
-3 7 8 2.9064 -0.2964
-3 7 9 -3.1867 0.8545
-3 7 10 -5.6611 -0.5054
-3 7 11 -2.0105 1.2557
-3 7 12 8.6639 -0.9218
-3 7 13 -4.2021 0.5576
-3 7 14 3.5239 0.9385
-3 7 15 0.2685 0.7696
-3 7 16 -9.2338 -1.1421
-3 7 17 -0.4001 0.3328
-3 7 18 -6.0305 -0.1165
-3 7 19 -4.0051 0.3845
-3 7 20 -2.0422 -0.4442
-3 7 21 -1.0023 -0.5256
-3 8 -2 -9.6704 -0.4655
-3 8 -1 -1.6685 0.9859
-3 8 0 -17.8891 -0.2991
-3 8 1 -7.5478 0.9302
-3 8 2 -4.2457 -0.4854
-3 8 3 -0.2740 0.0533
-3 8 4 0.1477 -0.7775
-3 8 5 5.4295 0.9758
-3 8 6 -4.5203 -1.4234
-3 8 7 -2.7504 1.4597
-3 8 8 3.6772 -1.4887
-3 8 9 2.6785 0.1777
-3 8 10 0.7621 -0.7977
-3 8 11 0.6420 1.3949
-3 8 12 0.0372 -1.2525
-3 8 13 -9.8410 -0.4102
-3 8 14 4.3579 -0.4919
-3 8 15 2.5596 0.3838
-3 8 16 1.6058 -0.5215
-3 8 17 6.7805 0.8938
-3 8 18 2.0241 -0.6251
-3 8 19 1.8951 -0.0341
-3 8 20 2.1801 0.3889
-3 8 21 -0.2635 0.5852
-3 9 -2 3.5669 -0.2528
-3 9 -1 13.5774 -0.6837
-3 9 0 1.3017 -0.4058
-3 9 1 8.0610 -0.3816
-3 9 2 -0.1459 0.4580
-3 9 3 -0.7648 -0.6080
-3 9 4 -0.1779 0.1592
-3 9 5 7.2720 -0.6479
-3 9 6 -2.1508 -0.6872
-3 9 7 0.1334 0.8239
-3 9 8 0.0151 -0.5434
-3 9 9 -2.5287 0.1103
-3 9 10 -2.9442 -0.6582
-3 9 11 3.8540 0.5818
-3 9 12 4.2967 -0.1255
-3 9 13 -1.2320 0.5890
-3 9 14 4.8869 0.3080
-3 9 15 -5.8247 -0.2355
-3 9 16 -4.2786 -0.6580
-3 9 17 -3.0869 0.6784
-3 9 18 -1.0828 -0.2988
-3 9 19 -0.9587 -0.3112
-3 9 20 0.4157 -0.0686
-3 10 -2 -2.9799 1.3718
-3 10 -1 -2.4189 -0.4045
-3 10 0 -5.0993 1.1460
-3 10 1 5.6627 -0.9081
-3 10 2 0.6003 1.0737
-3 10 3 -0.6998 -0.5880
-3 10 4 -6.6675 1.8790
-3 10 5 -0.9857 -0.5489
-3 10 6 -3.6896 1.0957
-3 10 7 3.6779 0.0810
-3 10 8 2.2059 0.8558
-3 10 9 1.2194 0.3714
-3 10 10 -3.2487 0.7302
-3 10 11 1.1242 -0.3361
-3 10 12 -3.1092 -0.1659
-3 10 13 -4.7890 -0.2173
-3 10 14 4.4383 0.6670
-3 10 15 0.1654 -0.2011
-3 10 16 5.8264 0.1000
-3 10 17 0.4235 0.4062
-3 10 18 2.4091 0.2455
-3 10 19 -0.8589 0.0894
-3 11 -2 1.7674 0.2545
-3 11 -1 -1.3714 -1.1754
-3 11 0 -3.5000 1.1201
-3 11 1 -3.9593 -1.3256
-3 11 2 -4.7585 0.5204
-3 11 3 4.3755 -1.4697
-3 11 4 4.1129 0.5798
-3 11 5 5.5922 -1.6238
-3 11 6 -3.1671 0.6487
-3 11 7 -1.3742 -1.8043
-3 11 8 -2.9802 -0.2434
-3 11 9 1.7820 -1.5123
-3 11 10 -2.6509 0.7814
-3 11 11 4.2039 -0.7604
-3 11 12 0.3223 0.3558
-3 11 13 -1.3483 -0.7105
-3 11 14 2.3755 0.2673
-3 11 15 -4.7291 -0.5974
-3 11 16 -0.4461 0.1392
-3 11 17 -4.0662 -0.6155
-3 11 18 0.8179 -0.3692
-3 11 19 -0.8691 -0.4149
-3 12 -2 0.6583 -0.0282
-3 12 -1 1.3321 -0.2679
-3 12 0 7.1812 0.7914
-3 12 1 4.8245 -0.2715
-3 12 2 1.1911 0.8974
-3 12 3 -1.0743 -0.0286
-3 12 4 -5.0898 0.3724
-3 12 5 -0.7390 -0.4677
-3 12 6 -0.3767 1.3019
-3 12 7 3.8476 0.1081
-3 12 8 0.1549 1.2392
-3 12 9 2.7922 -0.6505
-3 12 10 -3.1216 0.9216
-3 12 11 4.2714 -0.7611
-3 12 12 -1.1447 0.9557
-3 12 13 -1.4721 -0.0627
-3 12 14 2.9453 0.2660
-3 12 15 -0.9846 -0.2046
-3 12 16 2.5243 0.7299
-3 12 17 1.1173 0.2349
-3 12 18 2.6858 0.5080
-3 13 -2 -3.3824 -0.4087
-3 13 -1 -3.5899 0.4921
-3 13 0 -2.8077 -0.6133
-3 13 1 -4.7682 0.0312
-3 13 2 -1.3025 -0.3988
-3 13 3 0.8193 0.6474
-3 13 4 1.8697 -0.0953
-3 13 5 1.0586 0.3663
-3 13 6 -1.4913 -0.2100
-3 13 7 0.1967 -0.1148
-3 13 8 -2.3679 0.2771
-3 13 9 0.1456 0.3182
-3 13 10 -5.0350 0.6120
-3 13 11 2.1247 -0.7749
-3 13 12 -2.9409 0.2832
-3 13 13 0.1927 -0.0267
-3 13 14 2.5445 -0.0582
-3 13 15 -2.0533 -0.0997
-3 13 16 -1.6266 -0.2808
-3 13 17 -1.2302 -0.3576
-3 14 -2 -0.4737 -0.6347
-3 14 -1 3.8146 0.9306
-3 14 0 1.4435 -1.1549
-3 14 1 1.9842 0.9060
-3 14 2 1.7822 -1.1895
-3 14 3 -0.6107 0.4472
-3 14 4 1.1369 -1.3538
-3 14 5 -1.4984 0.4092
-3 14 6 -0.4773 -0.9687
-3 14 7 1.0013 -0.2084
-3 14 8 -0.0440 -1.5050
-3 14 9 3.5954 -0.0247
-3 14 10 0.3757 -0.6148
-3 14 11 4.5753 -0.1313
-3 14 12 -3.8805 -0.0106
-3 14 13 -0.6579 -0.2059
-3 14 14 0.3634 -0.3646
-3 14 15 -0.0576 0.5039
-3 14 16 1.7923 -0.1897
-3 15 -2 -1.4067 -0.5184
-3 15 -1 2.6559 0.8597
-3 15 0 -3.7576 -0.6570
-3 15 1 0.7291 1.4529
-3 15 2 -0.8906 -0.5829
-3 15 3 -1.6304 1.1810
-3 15 4 1.6582 -0.5815
-3 15 5 -1.5106 1.2697
-3 15 6 2.1546 0.2050
-3 15 7 0.6810 1.3618
-3 15 8 -2.6997 0.0234
-3 15 9 -0.7538 1.4639
-3 15 10 -3.5812 -0.6376
-3 15 11 3.1462 0.8038
-3 15 12 -0.1623 0.2874
-3 15 13 4.0916 0.2160
-3 15 14 0.1181 -0.1952
-3 15 15 -2.8306 0.4217
-3 16 -2 -0.9447 0.0640
-3 16 -1 2.4535 -0.0510
-3 16 0 -4.0146 -0.6903
-3 16 1 2.3285 -0.0370
-3 16 2 -0.4453 -0.4486
-3 16 3 0.0222 0.4717
-3 16 4 1.2371 -0.5542
-3 16 5 -2.9695 0.0660
-3 16 6 1.1696 -0.6731
-3 16 7 -0.3971 -0.2236
-3 16 8 -0.3750 -0.3714
-3 16 9 4.1832 0.7943
-3 16 10 -2.1684 -1.1231
-3 16 11 -0.6426 0.3802
-3 16 12 -5.2534 -0.5085
-3 16 13 -0.7114 -0.0942
-3 17 -2 1.5770 0.4664
-3 17 -1 3.3331 -0.3558
-3 17 0 -1.5882 0.8894
-3 17 1 2.0922 -0.4728
-3 17 2 -0.6179 0.3151
-3 17 3 0.0467 -0.5863
-3 17 4 0.4237 -0.0547
-3 17 5 -0.6166 -0.1815
-3 17 6 2.8190 0.0409
-3 17 7 -1.1113 -0.7891
-3 17 8 -2.6134 -0.5768
-3 17 9 2.5035 -0.3731
-3 17 10 -1.3078 -0.6493
-3 17 11 4.2546 0.7594
-3 18 -2 -1.1125 0.6487
-3 18 -1 -1.1327 -1.2141
-3 18 0 -2.1803 1.0747
-3 18 1 -0.6559 -1.2830
-3 18 2 0.8515 1.1006
-3 18 3 0.8688 -0.4736
-3 18 4 -0.7934 1.0710
-3 18 5 -1.0722 -0.2075
-3 18 6 0.6123 1.1246
-3 18 7 -0.8266 0.5468
-3 18 8 -0.5212 1.5889
-3 18 9 2.2849 0.5984
-3 19 -2 1.5735 1.0390
-3 19 -1 1.6818 -0.9058
-3 19 0 2.4265 1.7801
-3 19 1 -1.4818 -0.9428
-3 19 2 0.3710 1.1233
-3 19 3 -1.3733 -0.8988
-3 19 4 -0.8634 0.5408
-3 19 5 1.6369 -1.2562
-3 19 6 1.2237 0.1253
-2 0 0 -40.4301 -18.0384
-2 0 2 42.3775 10.9509
-2 0 4 61.7900 3.3165
-2 0 6 -29.7027 -1.2432
-2 0 8 -2.9408 1.5709
-2 0 10 9.6741 -1.1612
-2 0 12 -8.4290 1.1766
-2 0 14 -0.6238 -0.3121
-2 0 16 -0.4691 1.3457
-2 0 18 -7.9625 -0.6809
-2 0 20 -5.0968 0.0736
-2 0 22 4.9413 0.6061
-2 1 -1 6.7808 20.0280
-2 1 0 3.1550 1.9683
-2 1 1 12.5223 2.3784
-2 1 2 -18.6095 3.1527
-2 1 3 -65.7761 -9.9440
-2 1 4 18.5807 4.8141
-2 1 5 -9.3925 0.9050
-2 1 6 3.4356 -0.5032
-2 1 7 23.4820 -1.5087
-2 1 8 -12.4348 3.0359
-2 1 9 -10.0349 -0.2156
-2 1 10 4.6833 -0.2382
-2 1 11 0.1696 -0.5477
-2 1 12 2.7474 0.8393
-2 1 13 4.0113 -0.6670
-2 1 14 -5.1693 0.7939
-2 1 15 -0.8892 -1.0183
-2 1 16 -16.2727 -0.2752
-2 1 17 4.6022 -0.4946
-2 1 18 -10.4189 0.4848
-2 1 19 7.3397 0.5741
-2 1 20 -4.2047 -0.0524
-2 1 21 -0.8933 -0.7543
-2 1 22 -3.7498 -0.0616
-2 1 23 -5.0398 0.0532
-2 2 -1 -24.9640 -6.8696
-2 2 0 -13.6969 -8.2607
-2 2 1 21.7777 1.1269
-2 2 2 16.9471 3.5789
-2 2 3 0.9579 -5.9448
-2 2 4 27.4001 5.3971
-2 2 5 -27.0977 0.2951
-2 2 6 -7.0988 0.6850
-2 2 7 16.9279 -0.4577
-2 2 8 -6.3598 1.6815
-2 2 9 5.5737 -1.4864
-2 2 10 6.6299 1.5184
-2 2 11 -8.6763 1.5878
-2 2 12 0.9483 0.7474
-2 2 13 -1.2868 -1.5304
-2 2 14 0.4594 1.9080
-2 2 15 19.2226 0.7387
-2 2 16 -2.3826 0.9631
-2 2 17 28.6849 -0.4852
-2 2 18 -6.1097 0.0130
-2 2 19 12.1094 0.0125
-2 2 20 -1.2055 0.2274
-2 2 21 7.2650 -0.1170
-2 2 22 3.3105 0.4147
-2 2 23 1.4786 0.4278
-2 3 -1 3.4984 2.3514
-2 3 0 4.8865 1.3048
-2 3 1 -3.2634 1.9497
-2 3 2 -17.7981 1.6757
-2 3 3 6.6508 -2.8482
-2 3 4 18.3298 2.0999
-2 3 5 -8.3353 -4.7760
-2 3 6 1.9102 -0.9130
-2 3 7 0.9713 0.0940
-2 3 8 -16.2389 1.8572
-2 3 9 1.9945 -3.2729
-2 3 10 4.2232 -0.7189
-2 3 11 -6.5881 -0.7352
-2 3 12 9.1989 0.4995
-2 3 13 -3.3625 -1.9145
-2 3 14 -5.5802 0.3790
-2 3 15 0.1392 -1.8749
-2 3 16 -33.1548 -0.0355
-2 3 17 5.8685 -0.1250
-2 3 18 -30.0806 0.4780
-2 3 19 1.4009 -0.5203
-2 3 20 -11.0299 0.0616
-2 3 21 -2.7922 0.0429
-2 3 22 -4.6629 -0.0503
-2 3 23 -2.0872 -0.2357
-2 4 -1 -8.5125 0.0147
-2 4 0 11.9652 1.4980
-2 4 1 0.2632 -1.8003
-2 4 2 -19.7919 -2.1971
-2 4 3 0.6352 0.1780
-2 4 4 -17.3361 3.9177
-2 4 5 -1.9624 -0.6163
-2 4 6 11.4869 0.8938
-2 4 7 8.1773 -1.1087
-2 4 8 -0.6127 0.8360
-2 4 9 3.7708 -0.5226
-2 4 10 2.3141 2.0073
-2 4 11 -9.0756 -0.8449
-2 4 12 4.1994 0.2584
-2 4 13 -6.4701 -0.4774
-2 4 14 3.6894 2.3870
-2 4 15 15.0677 -0.4966
-2 4 16 -3.8606 -0.0567
-2 4 17 37.5199 -0.2886
-2 4 18 -3.6742 0.5386
-2 4 19 25.1649 -0.4569
-2 4 20 3.1298 -0.1318
-2 4 21 5.2470 -0.0447
-2 4 22 2.4950 0.0463
-2 5 -1 4.0135 -1.6124
-2 5 0 6.1133 0.3964
-2 5 1 3.7367 0.4873
-2 5 2 9.0972 -0.2774
-2 5 3 32.8021 0.5496
-2 5 4 -11.2154 -1.0570
-2 5 5 4.3280 -0.8439
-2 5 6 -7.7358 2.2165
-2 5 7 -7.0889 1.0315
-2 5 8 -1.4906 -0.3012
-2 5 9 -3.4134 -0.2995
-2 5 10 7.0660 1.7695
-2 5 11 0.6390 0.1634
-2 5 12 8.1075 0.5186
-2 5 13 -2.4680 -0.7919
-2 5 14 0.6136 0.4986
-2 5 15 -1.1546 -0.1891
-2 5 16 -18.4132 0.4251
-2 5 17 3.9642 0.4027
-2 5 18 -34.8449 0.2111
-2 5 19 -0.4792 0.0417
-2 5 20 -13.6283 0.4600
-2 5 21 -3.8341 0.2369
-2 5 22 0.4529 -0.4660
-2 6 -1 3.2810 3.4390
-2 6 0 -2.7885 -0.1525
-2 6 1 -15.7201 0.3855
-2 6 2 -19.2242 -0.3483
-2 6 3 3.1262 2.0313
-2 6 4 -16.7007 -1.6644
-2 6 5 16.8478 -1.2108
-2 6 6 -3.1785 -1.1063
-2 6 7 3.3283 0.0610
-2 6 8 7.1870 -1.9902
-2 6 9 -8.4638 -0.2804
-2 6 10 0.9462 -1.3043
-2 6 11 -10.9538 -1.1817
-2 6 12 -3.8309 -0.1459
-2 6 13 -0.2090 0.3265
-2 6 14 1.8090 -0.6824
-2 6 15 -1.3509 -0.4991
-2 6 16 -0.2790 -0.5897
-2 6 17 19.1095 0.2384
-2 6 18 -0.4380 -0.9566
-2 6 19 23.1080 -0.4532
-2 6 20 1.7544 -0.1288
-2 6 21 2.5667 0.3305
-2 6 22 3.7304 -0.0888
-2 7 -1 6.5014 0.4640
-2 7 0 7.2664 -1.9260
-2 7 1 11.7900 -0.2239
-2 7 2 6.4922 -1.7189
-2 7 3 7.0755 1.3200
-2 7 4 -10.3757 -0.4569
-2 7 5 10.8079 1.6352
-2 7 6 -10.3116 -0.1766
-2 7 7 2.3195 1.4333
-2 7 8 2.8575 -0.8909
-2 7 9 -5.1075 3.0076
-2 7 10 16.0396 0.1198
-2 7 11 3.8744 0.2320
-2 7 12 1.3584 -0.4178
-2 7 13 2.0128 1.2564
-2 7 14 0.2107 -0.3544
-2 7 15 -1.0408 0.7107
-2 7 16 2.5350 -0.2764
-2 7 17 -2.3455 1.0856
-2 7 18 -13.9485 -0.0298
-2 7 19 -0.9957 0.8855
-2 7 20 -8.5492 -0.2574
-2 7 21 -3.2168 -0.3812
-2 8 -1 -7.5270 -0.0091
-2 8 0 -9.7264 0.4072
-2 8 1 -2.2470 1.3309
-2 8 2 -1.7725 0.0602
-2 8 3 -0.1515 0.7302
-2 8 4 -1.6089 -0.9250
-2 8 5 5.4197 1.0977
-2 8 6 -9.6168 -0.0886
-2 8 7 6.5174 0.8339
-2 8 8 -0.3690 -2.1874
-2 8 9 -10.9715 1.1523
-2 8 10 -0.4899 -0.7554
-2 8 11 -8.5401 0.8003
-2 8 12 -2.1592 -0.2762
-2 8 13 4.3094 0.6583
-2 8 14 -0.0129 -0.9857
-2 8 15 -4.5200 0.7662
-2 8 16 3.1931 -0.2257
-2 8 17 -3.3333 -0.0001
-2 8 18 3.4401 -1.2365
-2 8 19 3.8822 0.4893
-2 8 20 3.2593 0.2213
-2 8 21 2.1174 0.1238
-2 9 -1 -0.7520 -0.7381
-2 9 0 3.1466 0.8404
-2 9 1 2.9761 -0.8630
-2 9 2 -1.3252 0.1701
-2 9 3 -3.5099 -0.5072
-2 9 4 5.0220 -1.1742
-2 9 5 3.2922 -0.8137
-2 9 6 -6.6481 -0.7697
-2 9 7 5.1578 0.1269
-2 9 8 0.5540 -0.7804
-2 9 9 2.1655 0.3220
-2 9 10 8.2818 -1.3870
-2 9 11 0.8010 -0.5847
-2 9 12 -1.2699 -0.2581
-2 9 13 -0.8514 0.0961
-2 9 14 -1.9297 -0.9958
-2 9 15 -2.9697 -0.1241
-2 9 16 6.8834 -0.0496
-2 9 17 -3.6148 0.2585
-2 9 18 6.4117 -0.2370
-2 9 19 -5.6550 0.1611
-2 9 20 0.9711 -0.3222
-2 10 -1 -7.9378 -1.8031
-2 10 0 2.4421 0.5559
-2 10 1 2.5313 -1.7963
-2 10 2 0.4976 1.2898
-2 10 3 -6.8876 -0.0457
-2 10 4 1.0714 1.3492
-2 10 5 -0.2224 0.4224
-2 10 6 -0.9728 0.6720
-2 10 7 4.7119 -0.1502
-2 10 8 -3.1539 0.8748
-2 10 9 -3.4824 0.8506
-2 10 10 -1.9311 0.8236
-2 10 11 0.3560 -0.0063
-2 10 12 0.7653 1.0720
-2 10 13 3.4739 0.2427
-2 10 14 3.8340 0.5404
-2 10 15 -1.6674 0.2314
-2 10 16 3.0627 0.2806
-2 10 17 -8.3852 -0.1005
-2 10 18 5.3531 0.3435
-2 10 19 -5.6457 0.1609
-2 10 20 5.8658 0.4076
-2 11 -1 -4.7489 0.5240
-2 11 0 1.2861 1.6204
-2 11 1 -2.0699 -0.3999
-2 11 2 3.9378 1.2057
-2 11 3 1.6881 -1.3655
-2 11 4 5.3861 0.6365
-2 11 5 -2.0692 -0.3648
-2 11 6 -5.1361 0.7867
-2 11 7 -0.6823 -0.9950
-2 11 8 0.9438 0.2650
-2 11 9 1.8926 -0.9065
-2 11 10 -0.3984 0.3606
-2 11 11 0.8900 -1.0524
-2 11 12 -4.0559 0.4403
-2 11 13 -2.4899 -1.3200
-2 11 14 -1.7419 0.2938
-2 11 15 -3.2255 -0.1028
-2 11 16 4.8652 0.0624
-2 11 17 -4.2570 -0.5848
-2 11 18 4.5598 0.0551
-2 11 19 -6.1745 -0.4490
-2 12 -1 0.0170 -0.3797
-2 12 0 3.1107 -0.9298
-2 12 1 -2.0646 -0.4484
-2 12 2 -1.0086 0.1446
-2 12 3 -6.2288 -1.0920
-2 12 4 -0.4023 -0.0977
-2 12 5 2.3561 -1.2368
-2 12 6 3.1070 0.1511
-2 12 7 1.7680 -0.7936
-2 12 8 0.5155 0.5639
-2 12 9 -2.3280 -0.9558
-2 12 10 -1.3755 0.3064
-2 12 11 3.1926 -0.3744
-2 12 12 0.4541 1.1772
-2 12 13 3.0030 -0.8264
-2 12 14 1.0600 0.2400
-2 12 15 -1.4381 -0.3860
-2 12 16 3.5569 -0.0096
-2 12 17 -2.0183 0.1098
-2 12 18 5.9707 0.3103
-2 13 -1 0.8659 0.8036
-2 13 0 -0.3537 -0.6284
-2 13 1 -0.7544 0.9220
-2 13 2 2.6883 -0.0599
-2 13 3 0.2263 0.8922
-2 13 4 1.8976 0.8904
-2 13 5 -1.1833 0.4333
-2 13 6 -3.6463 0.5167
-2 13 7 -1.8048 0.1348
-2 13 8 3.0256 1.1062
-2 13 9 0.7829 0.1751
-2 13 10 0.5515 0.3065
-2 13 11 0.6743 -0.1979
-2 13 12 -1.5469 0.2609
-2 13 13 0.4142 -0.0787
-2 13 14 -0.1394 0.8659
-2 13 15 -0.4632 0.3046
-2 13 16 -0.2071 -0.0398
-2 13 17 -6.0006 0.3129
-2 14 -1 -1.0230 1.0714
-2 14 0 -0.9867 -0.4485
-2 14 1 3.3722 0.9025
-2 14 2 1.5381 -1.0910
-2 14 3 -1.9588 0.3357
-2 14 4 1.2134 -0.6470
-2 14 5 1.4508 0.2892
-2 14 6 -0.1381 -0.4543
-2 14 7 -0.1258 -0.2713
-2 14 8 -0.1215 -0.4304
-2 14 9 -3.5394 -0.3985
-2 14 10 -1.6337 -0.1698
-2 14 11 -0.7919 0.4050
-2 14 12 -1.1139 -0.7080
-2 14 13 -2.1906 -0.3011
-2 14 14 -0.6630 -0.4289
-2 14 15 1.9399 -0.3755
-2 14 16 2.7837 -0.5401
-2 15 -1 -0.0324 -0.1668
-2 15 0 -2.3050 -0.8340
-2 15 1 -0.2690 0.2285
-2 15 2 -4.7559 -0.8198
-2 15 3 -2.8472 0.2424
-2 15 4 1.2431 -0.9506
-2 15 5 0.4294 0.2296
-2 15 6 -2.0471 -0.7104
-2 15 7 1.9887 0.4481
-2 15 8 2.7809 -0.3027
-2 15 9 0.4846 0.1296
-2 15 10 2.3562 -0.1914
-2 15 11 3.2003 0.8177
-2 15 12 3.8791 -0.5550
-2 15 13 0.2483 0.9906
-2 15 14 0.5376 0.0493
-2 15 15 -1.1741 0.4338
-2 16 -1 -4.0103 0.3771
-2 16 0 1.3018 0.2202
-2 16 1 7.1285 0.4516
-2 16 2 1.0191 0.5378
-2 16 3 2.5420 0.7072
-2 16 4 1.9614 0.2661
-2 16 5 0.9837 0.6466
-2 16 6 -3.7365 0.0630
-2 16 7 1.0084 1.0778
-2 16 8 -0.5978 -0.1594
-2 16 9 -2.9634 0.3432
-2 16 10 -1.8144 -0.6198
-2 16 11 -2.8074 0.2326
-2 16 12 -2.7962 -0.9501
-2 16 13 -2.9519 0.7932
-2 16 14 2.2973 -0.7834
-2 17 -1 -1.5682 -0.3657
-2 17 0 -0.6141 0.0412
-2 17 1 -0.3992 -0.4785
-2 17 2 -6.9689 -0.0585
-2 17 3 -1.3899 -0.6584
-2 17 4 -1.7328 0.2073
-2 17 5 1.7490 -0.4585
-2 17 6 -2.9865 -0.4577
-2 17 7 3.5328 -0.5627
-2 17 8 0.5768 -0.8261
-2 17 9 -0.9033 0.9276
-2 17 10 2.3147 0.1938
-2 17 11 2.7105 0.6025
-2 17 12 1.4649 -0.6819
-2 18 -1 -2.0675 -0.5401
-2 18 0 0.4158 -0.0897
-2 18 1 3.9533 -0.3168
-2 18 2 0.0751 0.4823
-2 18 3 4.5428 -0.7868
-2 18 4 -0.0446 0.3142
-2 18 5 2.9960 -0.7210
-2 18 6 -4.2064 1.2708
-2 18 7 2.4725 0.2308
-2 18 8 -0.7963 -0.2138
-2 18 9 -1.3067 -0.0787
-2 18 10 0.9177 -1.1508
-2 19 -1 1.2534 0.4312
-2 19 0 -0.0588 0.2289
-2 19 1 0.7146 0.1963
-2 19 2 -3.8846 0.6957
-2 19 3 -0.3257 -0.2235
-2 19 4 -2.9899 1.1716
-2 19 5 2.4562 -0.8923
-2 19 6 -3.3313 0.6610
-2 19 7 3.5027 -1.2271
-2 20 -1 -0.8189 0.2233
-2 20 0 -2.0651 -0.8893
-2 20 1 1.5110 0.0750
-2 20 2 -0.1570 0.0630
-1 0 1 17.3095 13.4624
-1 0 3 -17.3143 17.7432
-1 0 5 -17.6557 6.9845
-1 0 7 40.7982 14.8007
-1 0 9 10.8303 10.2852
-1 0 11 -18.2512 8.8646
-1 0 13 5.0023 4.8713
-1 0 15 2.2565 4.2019
-1 0 17 -3.4300 3.5980
-1 0 19 -0.3286 1.8044
-1 0 21 3.2735 1.2023
-1 0 23 -0.0503 0.5993
-1 1 0 -15.9969 5.2398
-1 1 1 -13.8439 -5.8119
-1 1 2 -0.5378 -16.5880
-1 1 3 -7.4269 4.1613
-1 1 4 24.0083 -7.2113
-1 1 5 -3.5895 -1.0973
-1 1 6 -15.4936 -8.6378
-1 1 7 2.5073 1.3457
-1 1 8 -31.7185 -10.3983
-1 1 9 4.8387 1.7145
-1 1 10 12.1090 -7.0284
-1 1 11 -8.2397 -0.1020
-1 1 12 7.0766 -5.4264
-1 1 13 -0.5345 1.1502
-1 1 14 -3.8747 -2.6845
-1 1 15 2.3549 -0.2190
-1 1 16 0.4189 -3.2671
-1 1 17 0.6066 0.3053
-1 1 18 2.1615 -1.9530
-1 1 19 -2.3559 -0.0902
-1 1 20 -1.9662 -1.1587
-1 1 21 -2.7411 0.3898
-1 1 22 0.6544 -0.4195
-1 1 23 1.2763 0.1360
-1 2 0 15.2832 8.7580
-1 2 1 6.2861 1.8016
-1 2 2 19.8984 -0.5331
-1 2 3 -14.2885 6.1578
-1 2 4 9.7768 -2.9058
-1 2 5 2.6938 3.5432
-1 2 6 0.3426 1.3297
-1 2 7 23.0085 4.4339
-1 2 8 -10.7179 -4.1913
-1 2 9 4.1328 4.8649
-1 2 10 7.4039 0.3875
-1 2 11 -11.7428 2.6335
-1 2 12 7.7256 -1.3370
-1 2 13 -5.6899 1.4182
-1 2 14 -4.9147 -0.4843
-1 2 15 1.2517 1.0329
-1 2 16 -0.8119 0.0487
-1 2 17 1.2535 1.4323
-1 2 18 0.4802 -0.0664
-1 2 19 -0.2757 0.8812
-1 2 20 5.3966 -0.1511
-1 2 21 -1.7943 0.0616
-1 2 22 -0.1293 -0.2184
-1 2 23 -4.6547 0.0037
-1 3 0 -13.7973 1.6117
-1 3 1 -15.7082 -3.3865
-1 3 2 13.1498 3.9327
-1 3 3 -21.4890 2.2232
-1 3 4 -3.8707 -2.0435
-1 3 5 -5.6941 -0.9623
-1 3 6 -15.0925 1.5606
-1 3 7 12.9623 1.8909
-1 3 8 -4.6549 -0.4651
-1 3 9 -1.4112 0.9007
-1 3 10 4.6389 -0.4847
-1 3 11 -12.8450 -0.3652
-1 3 12 13.0005 1.3037
-1 3 13 4.5742 0.9804
-1 3 14 6.1319 0.4362
-1 3 15 1.9484 -0.2755
-1 3 16 -4.7686 0.5431
-1 3 17 -0.2038 -0.0233
-1 3 18 -1.3790 -0.8118
-1 3 19 -3.2318 -0.0717
-1 3 20 2.1663 0.3477
-1 3 21 -1.8916 0.1660
-1 3 22 7.3617 0.5331
-1 3 23 0.7491 -0.2360
-1 4 0 3.3647 -1.5362
-1 4 1 -7.6871 -5.4895
-1 4 2 16.6772 0.4406
-1 4 3 -2.3178 -3.6142
-1 4 4 18.2434 1.4617
-1 4 5 14.9357 -1.6587
-1 4 6 -11.4879 -0.3280
-1 4 7 2.9175 -4.1733
-1 4 8 -6.7293 0.4891
-1 4 9 -1.8457 -0.5235
-1 4 10 13.6681 0.7391
-1 4 11 -11.2479 -2.8607
-1 4 12 -0.5668 0.3432
-1 4 13 -12.8610 -1.6246
-1 4 14 -5.2442 0.1466
-1 4 15 0.7921 -1.7235
-1 4 16 1.2602 0.3100
-1 4 17 5.0764 -0.0640
-1 4 18 1.4224 0.1649
-1 4 19 -1.6210 0.1458
-1 4 20 1.5659 -0.0555
-1 4 21 -5.1091 -1.0383
-1 4 22 -1.3429 0.3768
-1 4 23 -6.7365 -0.9360
-1 5 0 -1.8180 -0.0892
-1 5 1 0.0795 3.2516
-1 5 2 5.5687 4.2046
-1 5 3 -18.0110 -3.3769
-1 5 4 -8.7242 2.2811
-1 5 5 0.3135 -0.1364
-1 5 6 -2.6829 3.5215
-1 5 7 12.2683 -1.8529
-1 5 8 -1.3126 1.8347
-1 5 9 -6.7068 -1.7199
-1 5 10 8.9705 1.6818
-1 5 11 -5.2938 -0.6786
-1 5 12 12.6516 1.9759
-1 5 13 5.3016 -1.0435
-1 5 14 3.9613 1.6173
-1 5 15 1.1156 -0.1383
-1 5 16 -3.6908 0.8552
-1 5 17 -1.7323 -0.3847
-1 5 18 -1.0420 -0.6218
-1 5 19 -1.3038 0.1359
-1 5 20 4.1705 0.5258
-1 5 21 1.5133 -0.3488
-1 5 22 2.6210 1.3783
-1 6 0 -3.2686 -3.6818
-1 6 1 -2.8040 0.1973
-1 6 2 4.5545 0.8190
-1 6 3 5.0738 -1.4806
-1 6 4 3.0155 1.3697
-1 6 5 -3.3531 -1.6099
-1 6 6 -6.3949 0.9870
-1 6 7 2.6389 -0.6604
-1 6 8 -1.7217 2.8114
-1 6 9 -3.1750 -0.7041
-1 6 10 3.3018 0.3593
-1 6 11 -12.1552 -0.2168
-1 6 12 0.7301 1.1839
-1 6 13 -2.1517 -1.0479
-1 6 14 -3.3678 0.4050
-1 6 15 -0.7971 -0.6222
-1 6 16 0.3017 0.1997
-1 6 17 2.2613 0.5772
-1 6 18 1.5503 -0.0875
-1 6 19 -3.5791 0.4642
-1 6 20 0.3030 0.1273
-1 6 21 -0.3646 -1.0554
-1 6 22 -0.4993 0.1906
-1 7 0 4.9274 -0.9543
-1 7 1 -2.4796 0.2904
-1 7 2 -5.8261 -0.9852
-1 7 3 5.8225 -0.3690
-1 7 4 4.6438 0.4833
-1 7 5 4.0111 -0.1464
-1 7 6 4.2828 -1.4492
-1 7 7 -0.7312 -1.6044
-1 7 8 -2.8678 -0.2077
-1 7 9 3.7743 -0.4910
-1 7 10 9.8936 -1.0789
-1 7 11 -2.7785 -0.0889
-1 7 12 0.0748 -0.3907
-1 7 13 0.1722 -0.3801
-1 7 14 -0.5830 0.3189
-1 7 15 2.4374 -0.0939
-1 7 16 1.2344 -0.7813
-1 7 17 -1.2205 0.2323
-1 7 18 0.7885 -0.7900
-1 7 19 -0.9702 -0.0900
-1 7 20 2.2917 0.1384
-1 7 21 -2.0564 0.0645
-1 7 22 -3.9430 1.2077
-1 8 0 9.5397 0.6626
-1 8 1 1.4609 0.8894
-1 8 2 -5.4137 -0.2988
-1 8 3 -0.0870 0.0304
-1 8 4 -12.4333 -0.6972
-1 8 5 -7.8167 1.8416
-1 8 6 3.3732 -0.2680
-1 8 7 0.9572 1.3880
-1 8 8 -3.0432 -0.4096
-1 8 9 -4.5046 0.8860
-1 8 10 -1.0747 -0.4820
-1 8 11 -1.6487 1.3080
-1 8 12 3.0498 -0.6472
-1 8 13 5.4404 -0.0649
-1 8 14 -3.1474 0.0463
-1 8 15 -2.3430 0.8076
-1 8 16 0.5631 -0.3870
-1 8 17 -0.8915 0.8081
-1 8 18 0.3542 -0.0269
-1 8 19 -1.0696 0.3896
-1 8 20 3.1948 0.0353
-1 8 21 1.5606 -0.8730
-1 9 0 4.2475 -0.2996
-1 9 1 -5.7559 0.1510
-1 9 2 1.5373 0.4782
-1 9 3 14.5081 0.8709
-1 9 4 3.2806 -0.6880
-1 9 5 2.8307 1.0595
-1 9 6 2.5298 -1.3655
-1 9 7 -0.1695 1.7684
-1 9 8 1.1568 -0.6419
-1 9 9 1.8990 0.8475
-1 9 10 2.4358 -0.6972
-1 9 11 -3.2327 1.1853
-1 9 12 -4.8305 0.0294
-1 9 13 2.6777 0.5393
-1 9 14 -2.1856 -0.3933
-1 9 15 0.6345 0.2968
-1 9 16 2.1762 -0.6446
-1 9 17 -1.0141 0.2503
-1 9 18 -0.9615 -0.4894
-1 9 19 -1.5298 -0.1557
-1 9 20 -0.9148 0.4789
-1 9 21 -2.7469 0.2465
-1 10 0 7.1531 0.0860
-1 10 1 -6.7316 -0.4803
-1 10 2 -5.0161 -0.7818
-1 10 3 -2.0706 -0.1498
-1 10 4 -6.7588 -0.7548
-1 10 5 -0.2571 0.0622
-1 10 6 -1.7161 -1.7588
-1 10 7 -1.2918 0.3973
-1 10 8 -1.3870 -1.2298
-1 10 9 0.2604 0.0034
-1 10 10 3.7353 -0.9322
-1 10 11 0.4577 -0.5973
-1 10 12 -1.6484 -0.7840
-1 10 13 3.9282 -0.0447
-1 10 14 -2.1428 -0.3603
-1 10 15 0.3797 0.1720
-1 10 16 1.4260 -0.2738
-1 10 17 1.2842 0.3591
-1 10 18 1.2538 0.1056
-1 10 19 3.1747 -0.1459
-1 10 20 1.3675 -0.1596
-1 11 0 3.3586 0.7435
-1 11 1 0.4167 0.1842
-1 11 2 6.4766 -0.3235
-1 11 3 2.0821 0.4779
-1 11 4 -2.1699 0.4140
-1 11 5 3.3492 0.6958
-1 11 6 0.6667 0.2381
-1 11 7 2.9657 0.5838
-1 11 8 -2.0497 0.0219
-1 11 9 -3.0259 0.5419
-1 11 10 -0.2791 0.9760
-1 11 11 -0.1699 0.2694
-1 11 12 -0.4859 0.3419
-1 11 13 2.6362 0.2384
-1 11 14 -2.4519 0.2075
-1 11 15 -0.9797 0.2584
-1 11 16 -2.1835 -0.0455
-1 11 17 -1.8517 -0.1241
-1 11 18 -5.2104 0.0398
-1 11 19 -0.7647 0.2017
-1 12 0 -4.7371 0.8334
-1 12 1 -4.6625 0.2971
-1 12 2 0.6985 0.3161
-1 12 3 -0.4317 0.3375
-1 12 4 -0.7682 -0.0835
-1 12 5 1.5036 -0.1766
-1 12 6 -3.8524 0.6768
-1 12 7 1.4577 0.0596
-1 12 8 0.8973 0.1454
-1 12 9 2.1367 -0.6444
-1 12 10 0.4383 0.3359
-1 12 11 -1.0676 -0.3438
-1 12 12 -2.5083 0.2975
-1 12 13 1.2834 -0.1712
-1 12 14 0.2677 -0.0521
-1 12 15 2.0497 -0.2069
-1 12 16 2.7677 0.1455
-1 12 17 5.9407 -0.1141
-1 12 18 1.2272 -0.1185
-1 12 19 3.4189 0.0452
-1 13 0 0.4840 -0.4110
-1 13 1 2.6107 -1.2577
-1 13 2 0.0932 -0.2536
-1 13 3 0.0145 -0.5232
-1 13 4 -0.9481 -0.4525
-1 13 5 3.0776 -1.2248
-1 13 6 -1.9122 -0.2759
-1 13 7 0.1752 -0.8338
-1 13 8 -1.6353 0.1600
-1 13 9 0.1759 -0.6774
-1 13 10 0.4280 0.0167
-1 13 11 3.0126 -0.7866
-1 13 12 -0.2883 -0.0793
-1 13 13 1.8559 -0.3170
-1 13 14 -1.2733 0.0948
-1 13 15 -2.9459 -0.3916
-1 13 16 -3.3846 0.2208
-1 13 17 -3.1861 0.1003
-1 13 18 -4.9800 0.0888
-1 14 0 -1.8509 0.4586
-1 14 1 2.6305 0.0627
-1 14 2 -3.1559 0.8872
-1 14 3 0.9832 0.1117
-1 14 4 -4.3139 1.2743
-1 14 5 1.6550 0.3862
-1 14 6 -0.8909 0.9342
-1 14 7 1.5776 -0.0655
-1 14 8 0.3050 0.5757
-1 14 9 -0.7617 0.3877
-1 14 10 -3.0906 0.8647
-1 14 11 -0.6448 0.1876
-1 14 12 -4.2087 0.4741
-1 14 13 1.3621 0.2203
-1 14 14 -0.3956 0.7323
-1 14 15 1.0418 -0.1682
-1 14 16 4.8147 0.0907
-1 14 17 2.1284 -0.1991
-1 15 0 -0.7328 -0.2377
-1 15 1 1.8601 0.0651
-1 15 2 -2.6028 0.3280
-1 15 3 7.4000 -0.7682
-1 15 4 -0.6953 0.1211
-1 15 5 3.6040 -0.6138
-1 15 6 -1.6262 0.4695
-1 15 7 -0.4019 -0.2090
-1 15 8 0.2590 -0.3121
-1 15 9 1.7388 -0.4168
-1 15 10 1.8218 -0.2944
-1 15 11 4.8234 -0.2946
-1 15 12 0.1652 -0.1827
-1 15 13 3.8695 -0.6774
-1 15 14 -1.4050 -0.1498
-1 15 15 -1.5482 -0.4385
-1 16 0 0.1765 -0.8555
-1 16 1 1.3454 -0.2374
-1 16 2 -5.5032 -0.3857
-1 16 3 0.4276 -0.4572
-1 16 4 -6.3232 -0.2040
-1 16 5 -0.0636 -0.8646
-1 16 6 -1.7922 -0.1499
-1 16 7 0.6978 -0.3635
-1 16 8 -0.5255 -0.0066
-1 16 9 -1.3173 0.2004
-1 16 10 -3.9282 -0.2530
-1 16 11 -1.9764 0.0368
-1 16 12 -4.3077 0.3088
-1 16 13 0.3430 0.2146
-1 16 14 -2.2736 0.3240
-1 17 0 -0.0470 0.1401
-1 17 1 2.0455 0.9058
-1 17 2 0.0833 0.3573
-1 17 3 3.9842 1.0385
-1 17 4 2.5319 0.7163
-1 17 5 3.0073 0.7825
-1 17 6 0.4034 0.6412
-1 17 7 1.6554 0.0266
-1 17 8 0.1149 0.3971
-1 17 9 2.5155 0.6422
-1 17 10 1.7043 0.0270
-1 17 11 3.5455 0.2451
-1 17 12 0.8921 -0.0496
-1 18 0 -2.1996 -0.7759
-1 18 1 0.2626 -0.0743
-1 18 2 -0.8492 -0.9872
-1 18 3 -3.2451 -0.4449
-1 18 4 0.6014 -1.1891
-1 18 5 -3.7094 -0.2121
-1 18 6 -1.7299 -0.1506
-1 18 7 -0.1361 -0.6115
-1 18 8 -3.0256 -0.3727
-1 18 9 -1.1668 -0.4554
-1 18 10 -2.1088 -0.7328
-1 19 0 1.1276 -0.1977
-1 19 1 0.8969 0.7120
-1 19 2 0.8936 0.1326
-1 19 3 -3.1495 0.7861
-1 19 4 5.1121 0.0015
-1 19 5 -2.9996 0.3595
-1 19 6 2.3191 0.1674
-1 19 7 3.2739 -0.1764
-1 19 8 0.9799 0.7986
-1 20 0 -0.1020 -0.4375
-1 20 1 -0.5960 0.1580
-1 20 2 1.5674 -0.4165
-1 20 3 -2.0473 -0.0087
-1 20 4 5.7884 -0.3622
0 0 2 74.3865 -6.1660
0 0 4 -50.1446 -29.9926
0 0 6 31.5916 -25.3498
0 0 8 21.3833 -20.8151
0 0 10 -22.3956 -17.7590
0 0 12 4.2155 -13.1719
0 0 14 6.3008 -8.9481
0 0 16 -3.2631 -6.4067
0 0 18 -0.3497 -5.2171
0 0 20 3.0959 -3.0140
0 0 22 -0.8228 -1.4663
0 1 1 -164.4095 -2.4778
0 1 2 18.3937 4.0352
0 1 3 17.3635 15.1687
0 1 4 -8.9102 0.7795
0 1 5 14.7189 23.6892
0 1 6 -4.8572 -1.5910
0 1 7 -37.6423 17.3635
0 1 8 11.0931 1.6306
0 1 9 7.1627 15.7437
0 1 10 -6.1481 -1.1544
0 1 11 8.6893 12.0541
0 1 12 -9.8192 0.0821
0 1 13 -7.7195 8.6623
0 1 14 8.9247 -0.2523
0 1 15 -0.7590 5.7227
0 1 16 18.5681 0.3783
0 1 17 0.4486 4.8572
0 1 18 9.0930 -0.2024
0 1 19 -1.3707 3.3446
0 1 20 4.9560 0.1112
0 1 21 -0.3065 1.9537
0 1 22 8.4786 -0.1339
0 1 23 2.5411 0.3258
0 2 0 138.5617 5.2590
0 2 1 -25.3836 0.3858
0 2 2 50.3404 -3.4242
0 2 3 -8.9074 -5.4646
0 2 4 -27.3012 -10.2808
0 2 5 18.0353 3.1884
0 2 6 9.5107 -11.9025
0 2 7 -11.9850 -1.5978
0 2 8 12.8333 -8.7521
0 2 9 -2.5982 0.1443
0 2 10 -4.0888 -7.7683
0 2 11 18.4662 0.8579
0 2 12 1.1252 -5.5945
0 2 13 -0.1408 -0.3024
0 2 14 1.8389 -3.3752
0 2 15 -26.8626 -0.1328
0 2 16 4.4243 -3.1120
0 2 17 -27.5294 -0.3096
0 2 18 2.4941 -2.4879
0 2 19 -9.4471 0.0884
0 2 20 -2.2197 -1.7824
0 2 21 -11.3566 -0.1527
0 2 22 -2.7623 -0.4874
0 2 23 -7.7403 0.4440
0 3 1 -47.7274 0.3403
0 3 2 26.8941 2.6979
0 3 3 -4.7739 -0.5804
0 3 4 -10.8333 -0.5868
0 3 5 14.9180 0.9830
0 3 6 2.3288 -0.6483
0 3 7 -2.2588 2.9085
0 3 8 9.1406 1.1184
0 3 9 -9.4034 0.5757
0 3 10 -16.8828 -1.0448
0 3 11 -3.4630 1.9485
0 3 12 -7.9403 0.2968
0 3 13 2.3157 -0.4108
0 3 14 17.4103 0.2892
0 3 15 -4.7417 0.6781
0 3 16 36.6646 0.3929
0 3 17 -8.1911 0.8040
0 3 18 24.0317 0.0237
0 3 19 1.4235 0.9237
0 3 20 8.4250 0.1625
0 3 21 5.6523 0.2792
0 3 22 9.6870 -0.2937
0 3 23 0.2146 -0.0293
0 4 0 -12.8209 4.5488
0 4 1 -14.9020 -1.1225
0 4 2 6.8329 1.3509
0 4 3 -5.6842 1.9610
0 4 4 -3.8191 7.2778
0 4 5 -0.7023 0.0055
0 4 6 -18.3101 2.6052
0 4 7 -11.0208 -0.1028
0 4 8 6.9425 3.6768
0 4 9 13.1490 0.1478
0 4 10 11.3783 2.1335
0 4 11 10.4504 -0.0436
0 4 12 -0.2926 2.6545
0 4 13 -10.1717 -0.4105
0 4 14 -0.0989 2.3091
0 4 15 -26.3955 -0.4210
0 4 16 8.7272 0.4039
0 4 17 -34.6911 0.0184
0 4 18 3.9066 0.3603
0 4 19 -13.9736 -0.1851
0 4 20 -5.2611 0.1379
0 4 21 -3.1725 0.2096
0 4 22 -2.3833 0.2226
0 4 23 -1.6965 -0.0197
0 5 1 33.9893 -2.3442
0 5 2 3.8938 -2.8200
0 5 3 -3.0670 -6.0616
0 5 4 6.6391 -0.7439
0 5 5 17.9956 -6.0899
0 5 6 12.9277 0.6645
0 5 7 6.9969 -4.1574
0 5 8 -4.6783 -0.8286
0 5 9 -11.3975 -3.7016
0 5 10 -13.5926 0.8047
0 5 11 -4.7877 -3.2093
0 5 12 8.6950 -0.1039
0 5 13 -0.1879 -3.6192
0 5 14 17.8840 0.6110
0 5 15 -3.1641 -1.3807
0 5 16 26.2635 -0.3000
0 5 17 -5.4321 -0.6936
0 5 18 22.7434 0.1300
0 5 19 0.9956 -0.7514
0 5 20 0.7173 -0.1514
0 5 21 2.1069 -0.4501
0 5 22 -3.4581 0.0673
0 6 0 -45.8029 0.5241
0 6 1 4.6196 0.7181
0 6 2 -18.1201 3.4430
0 6 3 -3.9824 1.6375
0 6 4 -9.4040 3.8349
0 6 5 -14.3024 -1.4005
0 6 6 -12.5456 3.3484
0 6 7 -5.0222 0.9773
0 6 8 3.3824 1.6496
0 6 9 9.0245 -0.6691
0 6 10 5.2160 2.3351
0 6 11 -2.2249 -0.1228
0 6 12 3.6848 2.7499
0 6 13 -19.4634 -0.1097
0 6 14 0.6372 1.6401
0 6 15 -15.5263 0.1983
0 6 16 1.7061 0.2642
0 6 17 -17.3381 0.3168
0 6 18 1.0773 0.6264
0 6 19 -5.3774 0.0267
0 6 20 0.5305 0.7788
0 6 21 8.4056 -0.0465
0 6 22 1.3689 -0.0919
0 7 1 23.0176 -0.4873
0 7 2 -3.0633 -0.5107
0 7 3 15.1813 -0.4523
0 7 4 9.1893 1.1989
0 7 5 7.9145 -1.1120
0 7 6 9.3747 0.0121
0 7 7 2.5998 0.7009
0 7 8 1.2970 -0.0138
0 7 9 -0.4434 0.2136
0 7 10 -2.1582 0.3976
0 7 11 -5.0614 -1.3401
0 7 12 16.9964 -0.2298
0 7 13 -1.2107 -0.6102
0 7 14 17.7946 -0.2605
0 7 15 0.7668 0.0472
0 7 16 5.0001 -0.4976
0 7 17 -0.1207 0.4222
0 7 18 3.3467 -0.1473
0 7 19 -1.6738 -0.8522
0 7 20 -7.1409 0.0246
0 7 21 -2.4911 -0.0121
0 7 22 -5.7164 0.3209
0 8 0 -2.2548 -1.6621
0 8 1 -0.4934 0.4280
0 8 2 -13.3237 -2.0195
0 8 3 -0.8102 -0.9888
0 8 4 -9.0275 -1.0041
0 8 5 -5.4618 -0.4338
0 8 6 -0.0674 -1.6570
0 8 7 -8.5914 -0.1809
0 8 8 -4.8643 -2.3195
0 8 9 0.8863 0.0292
0 8 10 3.2929 -0.0209
0 8 11 -9.3373 0.0904
0 8 12 1.7890 -0.4852
0 8 13 -22.2698 0.4143
0 8 14 -1.9226 -0.4349
0 8 15 -3.7436 0.4007
0 8 16 0.4618 -1.1895
0 8 17 6.9697 0.1939
0 8 18 1.3928 0.1727
0 8 19 6.7811 0.0426
0 8 20 2.5552 0.2504
0 8 21 5.8945 -0.2795
0 9 1 -5.0846 2.3897
0 9 2 2.1976 0.3984
0 9 3 7.4670 2.1138
0 9 4 -4.6529 -0.1483
0 9 5 -0.9034 1.6720
0 9 6 9.1926 0.3930
0 9 7 3.5301 2.3481
0 9 8 2.2545 -0.1565
0 9 9 0.4203 0.8277
0 9 10 1.3934 -0.2442
0 9 11 -2.1692 0.7881
0 9 12 20.1019 -0.2362
0 9 13 3.8953 0.7988
0 9 14 10.3243 -0.2879
0 9 15 -0.9681 1.1684
0 9 16 -10.6755 0.0221
0 9 17 -2.9029 0.7456
0 9 18 -12.7498 -0.0398
0 9 19 -2.3495 -0.3735
0 9 20 -4.9154 0.2202
0 9 21 0.3375 0.1048
0 10 0 11.0245 -0.6849
0 10 1 -3.0405 -0.6697
0 10 2 4.3694 -1.1798
0 10 3 8.1942 0.6743
0 10 4 1.1263 -1.4460
0 10 5 -0.6690 0.2780
0 10 6 -1.1582 -1.3647
0 10 7 -5.7169 0.0347
0 10 8 -0.7999 -0.5116
0 10 9 4.7387 0.3367
0 10 10 2.0383 -0.5619
0 10 11 -12.9886 0.1419
0 10 12 -4.6947 -0.6989
0 10 13 -13.7263 0.1109
0 10 14 -1.8088 -0.8190
0 10 15 5.0490 -0.3171
0 10 16 4.9954 -0.9655
0 10 17 15.6674 -0.0185
0 10 18 3.7818 -0.0213
0 10 19 7.5089 -0.3349
0 10 20 -0.3378 0.1688
0 11 1 -7.4181 -0.6655
0 11 2 -6.8776 -0.0823
0 11 3 -6.2581 0.1959
0 11 4 -8.4570 -0.4534
0 11 5 0.0206 0.7212
0 11 6 4.0575 -0.4725
0 11 7 0.3960 -0.2091
0 11 8 -6.3142 -0.1059
0 11 9 -2.6967 0.1955
0 11 10 4.2057 -0.1123
0 11 11 2.7134 0.2428
0 11 12 12.9929 -0.0220
0 11 13 5.0843 0.4864
0 11 14 0.3298 0.4483
0 11 15 -2.9657 0.4983
0 11 16 -10.5709 0.1607
0 11 17 -6.1612 0.3628
0 11 18 -9.0819 0.2721
0 11 19 -1.2738 -0.2345
0 12 0 3.6409 0.9610
0 12 1 4.9639 0.1506
0 12 2 5.3431 0.9962
0 12 3 11.9801 -0.6017
0 12 4 3.0117 0.1160
0 12 5 2.3323 0.4679
0 12 6 -0.1574 0.5065
0 12 7 5.5984 0.1174
0 12 8 1.3915 0.0334
0 12 9 3.6429 -0.0986
0 12 10 0.5475 0.0006
0 12 11 -10.5560 -0.0129
0 12 12 -3.9509 -0.0563
0 12 13 -3.6563 -0.3717
0 12 14 -1.5527 -0.1224
0 12 15 4.7204 -0.1549
0 12 16 5.2273 0.0148
0 12 17 5.4720 -0.1732
0 12 18 3.4963 -0.0749
0 12 19 -0.3898 -0.0872
0 13 1 -1.3962 -0.6876
0 13 2 -7.4342 0.7535
0 13 3 -0.8896 -0.5114
0 13 4 -8.3125 0.4423
0 13 5 -2.4184 -0.7649
0 13 6 -5.1500 -0.0691
0 13 7 0.1804 -0.1206
0 13 8 -8.7241 0.3085
0 13 9 0.2349 0.0387
0 13 10 4.4509 -0.0102
0 13 11 -0.2988 -0.1525
0 13 12 7.7259 0.4407
0 13 13 2.2815 -0.1913
0 13 14 -0.3863 -0.1489
0 13 15 -1.6223 -0.3964
0 13 16 -1.4772 0.1339
0 13 17 -3.0791 -0.1482
0 13 18 2.7023 -0.0853
0 14 0 0.3695 0.5362
0 14 1 -2.2061 -0.3744
0 14 2 -2.5068 -0.1104
0 14 3 5.2450 -0.5156
0 14 4 0.8523 0.7017
0 14 5 6.6255 -0.1766
0 14 6 2.4372 0.1904
0 14 7 8.0040 -0.4315
0 14 8 -2.6863 0.1615
0 14 9 5.2371 0.0155
0 14 10 0.6426 0.0175
0 14 11 -8.0181 -0.3955
0 14 12 0.8469 0.3384
0 14 13 -5.1927 0.0796
0 14 14 0.6815 0.5909
0 14 15 -1.3348 0.2020
0 14 16 0.9661 0.4154
0 14 17 -3.7070 0.0086
0 15 1 1.8425 0.3011
0 15 2 7.5301 -0.0265
0 15 3 2.3014 -0.2186
0 15 4 -4.6728 -0.1035
0 15 5 -2.6823 -0.0956
0 15 6 -4.3633 0.1866
0 15 7 -0.1416 -0.2758
0 15 8 -9.8764 0.1100
0 15 9 2.0961 -0.3970
0 15 10 0.1424 0.1351
0 15 11 -1.6511 0.1064
0 15 12 8.7798 0.0848
0 15 13 -2.5491 -0.7173
0 15 14 4.3829 -0.1802
0 15 15 -1.1986 -0.3071
0 15 16 4.0889 -0.0965
0 16 0 -1.5432 -0.5720
0 16 1 -10.4579 0.5126
0 16 2 -1.3709 0.0708
0 16 3 -6.0152 0.4740
0 16 4 -0.3085 0.1793
0 16 5 0.8721 0.3128
0 16 6 2.8951 -0.0480
0 16 7 5.8884 0.1591
0 16 8 -0.2183 0.7660
0 16 9 8.5447 -0.2022
0 16 10 -1.0076 -0.0060
0 16 11 -5.5434 0.2355
0 16 12 3.5254 -0.0242
0 16 13 -5.8954 -0.1285
0 16 14 2.5064 0.3524
0 17 1 -0.2810 0.1913
0 17 2 12.6697 -0.7355
0 17 3 0.7091 -0.3788
0 17 4 4.9920 -0.3097
0 17 5 -0.7009 -0.2044
0 17 6 0.4943 -0.5511
0 17 7 -4.0257 -0.1315
0 17 8 -8.8075 0.1921
0 17 9 1.5318 -0.6978
0 17 10 -2.1134 -0.2661
0 17 11 -1.9937 0.5882
0 17 12 4.9208 -0.2158
0 17 13 -3.5013 0.2831
0 18 0 2.6991 -0.1991
0 18 1 -7.8086 0.7369
0 18 2 0.9646 0.0213
0 18 3 -9.4029 0.1544
0 18 4 -1.9716 0.7975
0 18 5 -4.3760 0.2387
0 18 6 3.6618 -0.1492
0 18 7 2.5634 -0.0252
0 18 8 1.5530 0.3396
0 18 9 6.2496 0.0011
0 18 10 -0.6660 0.1936
0 18 11 -1.3546 0.4986
0 19 1 -3.4054 -0.0066
0 19 2 8.6809 0.1335
0 19 3 1.6679 -0.5737
0 19 4 4.9668 0.1219
0 19 5 0.2966 -0.3889
0 19 6 1.4865 0.3009
0 19 7 -3.1385 0.4237
0 19 8 -3.5052 0.0682
0 20 0 3.6967 0.5226
0 20 1 -4.7662 -0.9362
0 20 2 0.7590 0.4376
0 20 3 -4.8203 -0.3334
0 20 4 -2.0894 0.5254
1 0 1 2.1798 18.5313
1 0 3 -20.9022 10.9348
1 0 5 1.0321 9.5184
1 0 7 14.5482 13.5668
1 0 9 8.4248 11.3165
1 0 11 3.4147 9.2362
1 0 13 -3.0781 4.2850
1 0 15 2.4349 4.6908
1 0 17 2.0993 3.3739
1 0 19 -3.4127 1.9515
1 0 21 -3.1448 0.8069
1 0 23 3.2489 0.9714
1 1 1 7.2842 -1.7419
1 1 2 9.8738 -13.8621
1 1 3 6.4993 0.7009
1 1 4 13.1655 -5.6061
1 1 5 -2.7442 -3.9451
1 1 6 -11.9989 -10.0548
1 1 7 -4.0133 0.5576
1 1 8 -9.7521 -9.7984
1 1 9 7.6802 -0.7275
1 1 10 -5.4045 -8.7924
1 1 11 3.3940 0.0649
1 1 12 2.5735 -4.5919
1 1 13 -1.0218 -0.3917
1 1 14 1.5013 -2.9798
1 1 15 4.2725 0.0876
1 1 16 -4.2140 -3.5034
1 1 17 -3.3392 -0.1925
1 1 18 -0.4011 -2.1742
1 1 19 -4.1686 -0.0886
1 1 20 4.6739 -0.8497
1 1 21 2.5620 0.4717
1 1 22 -1.2960 -0.6868
1 1 23 0.0498 -0.4315
1 2 1 13.2215 3.4853
1 2 2 -12.3330 -1.6560
1 2 3 -12.3698 5.1398
1 2 4 -6.3358 4.2981
1 2 5 0.6237 3.4341
1 2 6 9.4056 2.1996
1 2 7 11.7681 5.3653
1 2 8 -1.6908 -0.1588
1 2 9 2.6246 5.6070
1 2 10 -12.2801 1.1153
1 2 11 -2.1582 2.9406
1 2 12 0.1906 -0.0473
1 2 13 -6.2804 0.8833
1 2 14 -3.6717 0.9683
1 2 15 2.2392 1.3905
1 2 16 -3.7390 -0.0762
1 2 17 5.5226 2.0634
1 2 18 9.0047 0.8258
1 2 19 -1.4842 0.5669
1 2 20 0.1606 -0.4266
1 2 21 -1.9535 0.2877
1 2 22 -2.6385 -0.0583
1 2 23 5.2418 0.1296
1 3 1 12.4592 -0.9337
1 3 2 -9.3128 1.9851
1 3 3 15.7202 -0.9317
1 3 4 9.5311 -1.2355
1 3 5 -1.6862 -2.6672
1 3 6 -10.1116 1.2212
1 3 7 -9.0150 0.4167
1 3 8 -3.9919 -2.0042
1 3 9 7.8882 -0.7908
1 3 10 7.4952 0.0764
1 3 11 8.1931 0.0951
1 3 12 7.9668 1.0457
1 3 13 -0.4666 -0.7537
1 3 14 3.5520 1.1630
1 3 15 8.7731 -0.3833
1 3 16 -5.7880 -0.6048
1 3 17 -2.3944 -0.4233
1 3 18 -4.5287 -0.6497
1 3 19 -5.8925 -0.3603
1 3 20 1.5678 0.3738
1 3 21 2.1954 0.3695
1 3 22 -3.5642 0.2010
1 3 23 -0.0241 0.1851
1 4 1 19.4549 -6.9970
1 4 2 -15.8950 0.5742
1 4 3 -0.6885 -2.4248
1 4 4 -9.0074 -0.3556
1 4 5 -1.6451 -3.2579
1 4 6 8.1104 -1.1879
1 4 7 11.8624 -2.1143
1 4 8 3.5034 0.0028
1 4 9 -10.3551 -1.4743
1 4 10 -7.9702 -0.4260
1 4 11 -12.9468 -2.9751
1 4 12 -1.5990 0.1203
1 4 13 -5.6076 -2.0766
1 4 14 -4.8999 0.3124
1 4 15 0.6622 -1.4650
1 4 16 -7.6580 0.2197
1 4 17 5.6816 0.6006
1 4 18 3.9403 0.1336
1 4 19 2.7570 -0.4300
1 4 20 1.2936 0.1494
1 4 21 2.0702 -0.6561
1 4 22 0.2746 -0.4894
1 4 23 3.7578 -1.0354
1 5 1 3.5390 2.5441
1 5 2 -11.2766 4.8634
1 5 3 12.9523 0.6288
1 5 4 6.3698 3.4252
1 5 5 -3.5318 3.7427
1 5 6 -8.3805 2.9526
1 5 7 -6.2634 0.4145
1 5 8 0.2958 1.8750
1 5 9 1.5104 0.9810
1 5 10 17.9639 2.9458
1 5 11 1.0775 0.2376
1 5 12 7.6195 2.1671
1 5 13 1.2210 0.3109
1 5 14 1.7843 1.7396
1 5 15 8.9892 -0.0472
1 5 16 -1.5590 0.2504
1 5 17 4.0466 0.2469
1 5 18 -2.7667 -0.2853
1 5 19 -1.9560 0.0226
1 5 20 -4.0892 0.7630
1 5 21 -1.6529 0.0138
1 5 22 -2.0345 1.2784
1 6 1 1.0110 -1.1933
1 6 2 -5.1774 -1.1408
1 6 3 -0.2645 -2.9450
1 6 4 1.0420 -3.5511
1 6 5 -0.1406 -1.3917
1 6 6 7.3132 -1.5720
1 6 7 3.8905 -0.8139
1 6 8 -1.1486 -0.5391
1 6 9 -10.4657 -1.4600
1 6 10 2.1855 -0.6855
1 6 11 -9.8666 -1.3767
1 6 12 2.1422 -0.2762
1 6 13 -3.0338 -0.9078
1 6 14 -5.2815 -0.6288
1 6 15 -0.0642 -0.2618
1 6 16 -7.4571 -0.1644
1 6 17 -1.7481 0.3652
1 6 18 -1.5189 -0.5873
1 6 19 2.5024 0.0371
1 6 20 1.9755 0.1836
1 6 21 2.9299 -1.3378
1 6 22 0.7811 -0.1926
1 7 1 0.7267 0.6596
1 7 2 5.5336 -0.1457
1 7 3 -5.0238 1.8057
1 7 4 -0.7725 -0.1212
1 7 5 -8.1567 1.2529
1 7 6 1.2420 -1.2186
1 7 7 0.2264 0.0052
1 7 8 5.4094 -0.1546
1 7 9 -0.8428 0.3919
1 7 10 2.3422 -0.1673
1 7 11 -4.7267 0.1558
1 7 12 4.2762 0.2782
1 7 13 1.8488 0.5639
1 7 14 0.5995 -0.5781
1 7 15 4.8932 0.4452
1 7 16 2.3742 -0.3149
1 7 17 3.7770 0.4820
1 7 18 3.6277 -0.5283
1 7 19 -0.9604 0.1638
1 7 20 -1.9958 0.7382
1 7 21 -0.2493 -0.1447
1 7 22 2.2120 1.0243
1 8 1 -9.4369 1.4252
1 8 2 6.5818 0.2123
1 8 3 -2.7893 1.7029
1 8 4 10.9768 0.5255
1 8 5 0.3365 2.3323
1 8 6 -0.0859 0.6400
1 8 7 -9.5795 1.3596
1 8 8 1.1908 0.4419
1 8 9 2.4785 1.1812
1 8 10 4.0592 -0.0407
1 8 11 2.6299 0.3243
1 8 12 -1.2231 -0.0819
1 8 13 -2.8995 0.7494
1 8 14 -2.0035 -0.2983
1 8 15 -0.0115 0.7797
1 8 16 -2.0348 -0.4438
1 8 17 -5.9480 0.3957
1 8 18 0.2177 -0.0484
1 8 19 -2.4584 -0.0391
1 8 20 -0.3959 0.0648
1 8 21 -2.6393 -0.8741
1 9 1 4.8813 -1.6660
1 9 2 5.4200 -1.7318
1 9 3 -13.2977 -2.1779
1 9 4 0.3008 -2.1327
1 9 5 0.3601 -1.6299
1 9 6 6.9601 -1.5241
1 9 7 0.3097 -0.9070
1 9 8 3.2259 -1.2021
1 9 9 -6.0851 -0.4892
1 9 10 -8.0792 -0.5488
1 9 11 2.6181 0.0406
1 9 12 0.2848 -0.4959
1 9 13 2.2280 -0.3628
1 9 14 0.0462 -0.8198
1 9 15 0.1703 0.2982
1 9 16 3.3596 -0.4114
1 9 17 -1.4681 -0.1577
1 9 18 4.4380 -0.1561
1 9 19 0.2988 -0.1165
1 9 20 4.1780 0.4103
1 9 21 2.3128 -0.3648
1 10 1 -0.8500 1.1485
1 10 2 5.0299 2.2266
1 10 3 -2.0995 0.8758
1 10 4 2.6230 2.2320
1 10 5 -3.9284 0.4833
1 10 6 -4.9122 1.0025
1 10 7 -3.2262 0.6638
1 10 8 5.9022 0.7161
1 10 9 3.0896 0.0206
1 10 10 -0.7512 0.1467
1 10 11 3.0201 0.2702
1 10 12 -3.2840 0.4540
1 10 13 0.3043 0.4627
1 10 14 -0.6407 0.2450
1 10 15 -1.2978 0.3931
1 10 16 1.8745 0.2655
1 10 17 -2.3759 0.1470
1 10 18 1.6984 0.2636
1 10 19 -3.1327 -0.0110
1 10 20 -3.2563 0.2841
1 11 1 -1.0422 -0.6618
1 11 2 -1.8720 0.0173
1 11 3 -0.9908 -1.1933
1 11 4 4.3814 0.9240
1 11 5 4.4356 -0.8959
1 11 6 -0.2747 0.1622
1 11 7 -0.7382 -0.2926
1 11 8 -0.8311 0.5667
1 11 9 0.3653 -0.3320
1 11 10 0.3391 0.2165
1 11 11 1.9865 -0.3856
1 11 12 -1.0529 -0.2680
1 11 13 -0.1029 -0.3184
1 11 14 1.0091 -0.1837
1 11 15 0.2397 -0.4999
1 11 16 0.0575 -0.1560
1 11 17 -3.3117 -0.3467
1 11 18 -0.6541 0.0331
1 11 19 2.2277 -0.1441
1 12 1 0.7631 -0.8330
1 12 2 0.9656 -0.5614
1 12 3 -1.6083 -1.3921
1 12 4 -2.7502 -0.1802
1 12 5 0.3512 -0.7818
1 12 6 -0.2808 -0.1594
1 12 7 3.0367 -0.7156
1 12 8 -3.9012 -0.1216
1 12 9 -2.6817 -0.5989
1 12 10 -2.9769 0.4874
1 12 11 -0.8126 0.0912
1 12 12 2.9110 0.0666
1 12 13 -1.5026 -0.0570
1 12 14 -0.2821 0.3906
1 12 15 -0.2153 0.1538
1 12 16 2.0930 0.3750
1 12 17 4.1018 -0.3051
1 12 18 0.0672 0.1009
1 12 19 1.4947 0.5874
1 13 1 -4.2983 0.8008
1 13 2 1.7558 1.4733
1 13 3 -0.5157 1.4163
1 13 4 -1.2929 0.6058
1 13 5 -2.0065 0.8206
1 13 6 -3.4887 0.4726
1 13 7 3.6307 0.6621
1 13 8 1.5564 0.4342
1 13 9 6.5583 -0.1385
1 13 10 2.0188 0.0095
1 13 11 -2.1048 0.0309
1 13 12 1.8890 0.2328
1 13 13 -2.2584 -0.0153
1 13 14 2.2131 0.1209
1 13 15 -1.4745 -0.1069
1 13 16 -4.4827 0.3875
1 13 17 -0.9978 -0.0541
1 13 18 -4.7080 0.0402
1 14 1 -2.1055 -1.0459
1 14 2 4.1052 -1.2527
1 14 3 0.2946 -0.2524
1 14 4 5.7934 -1.3626
1 14 5 3.9714 -0.0038
1 14 6 -0.2831 -0.9534
1 14 7 -0.6652 -0.0024
1 14 8 -5.8541 -0.3477
1 14 9 -1.8526 0.1689
1 14 10 -1.3100 -0.3254
1 14 11 -1.1762 -0.1718
1 14 12 1.7230 -0.2239
1 14 13 -2.8170 -0.4175
1 14 14 2.3643 -0.2659
1 14 15 1.8327 -0.6060
1 14 16 1.6652 -0.2796
1 14 17 5.3883 -0.3918
1 15 1 -1.2765 0.7407
1 15 2 1.0298 -0.3984
1 15 3 -8.7383 0.9875
1 15 4 -2.9139 -0.2472
1 15 5 -3.3991 0.9888
1 15 6 -0.6269 -0.2083
1 15 7 2.5728 0.3531
1 15 8 1.5782 -0.3563
1 15 9 0.8743 0.6498
1 15 10 1.1325 -0.0298
1 15 11 0.7784 0.3835
1 15 12 1.1835 0.1968
1 15 13 -0.9343 0.4502
1 15 14 0.0896 0.8265
1 15 15 -2.5567 0.6262
1 16 1 -0.2032 1.2580
1 16 2 5.6462 -0.3223
1 16 3 0.9862 0.5491
1 16 4 6.0282 -0.5731
1 16 5 0.8362 0.0986
1 16 6 -0.3518 -0.0193
1 16 7 -0.1549 0.1526
1 16 8 1.4420 -0.4322
1 16 9 -1.8621 0.0370
1 16 10 0.0392 -0.3628
1 16 11 -0.6478 0.1818
1 16 12 -1.5262 -0.3306
1 16 13 0.7397 -0.3471
1 16 14 1.5574 -0.7447
1 17 1 -2.4675 -0.5335
1 17 2 0.3348 -0.6922
1 17 3 -4.5036 -0.1230
1 17 4 0.1556 -0.0715
1 17 5 -0.7465 -0.4355
1 17 6 -0.8501 0.1975
1 17 7 -1.6966 -0.0322
1 17 8 1.0294 0.3708
1 17 9 -2.3415 -0.0726
1 17 10 1.9424 -0.1776
1 17 11 1.1054 -0.1310
1 17 12 -1.6004 -0.2557
1 18 1 -1.6072 0.0868
1 18 2 2.1778 1.0456
1 18 3 -1.6262 -0.1729
1 18 4 0.2264 1.1611
1 18 5 0.5403 -0.2545
1 18 6 0.5089 0.2906
1 18 7 0.3658 -0.7667
1 18 8 2.4816 0.4000
1 18 9 -2.0671 -0.2685
1 18 10 0.8374 0.7846
1 19 1 -1.0973 -1.4115
1 19 2 3.2369 0.7248
1 19 3 0.3351 -1.9406
1 19 4 0.4769 0.4580
1 19 5 0.6945 -0.8622
1 19 6 -0.4239 0.7357
1 19 7 -1.0154 -0.0048
1 19 8 0.5833 0.6675
1 20 1 -3.0920 -0.6378
1 20 2 -0.6005 1.7161
1 20 3 -1.3101 -0.6940
1 20 4 -1.0201 1.5658
2 0 2 49.2861 17.2502
2 0 4 60.8996 4.7628
2 0 6 -15.8981 3.2595
2 0 8 -6.2149 -3.7359
2 0 10 11.3766 0.4775
2 0 12 -8.5303 0.5189
2 0 14 -12.8407 0.4204
2 0 16 -5.5067 0.6247
2 0 18 1.9767 -0.1967
2 0 20 2.6716 -0.0564
2 0 22 4.2855 0.5120
2 1 2 -14.1033 2.2288
2 1 3 -65.5588 -8.0302
2 1 4 5.1713 -2.2921
2 1 5 -16.5499 -4.2882
2 1 6 -1.6323 -1.4190
2 1 7 19.2832 0.8438
2 1 8 6.1240 -1.6667
2 1 9 -8.0822 1.8165
2 1 10 6.9029 -1.6276
2 1 11 -3.3463 -1.6566
2 1 12 -0.0310 -1.2648
2 1 13 12.1248 -0.3580
2 1 14 -1.9419 -0.8805
2 1 15 9.1073 -0.8577
2 1 16 -10.1774 -0.4437
2 1 17 1.8606 -0.2561
2 1 18 -9.7253 -0.7384
2 1 19 -2.4201 0.1006
2 1 20 1.0720 0.0808
2 1 21 -2.4967 -0.3376
2 1 22 1.6438 -0.2808
2 1 23 -5.2345 -0.0559
2 2 2 15.6465 9.6989
2 2 3 2.8907 -2.4776
2 2 4 31.3402 4.6150
2 2 5 -4.5475 1.5034
2 2 6 -6.0820 1.5316
2 2 7 -0.8683 -0.3477
2 2 8 -6.6379 -0.9854
2 2 9 -13.4848 1.3325
2 2 10 9.7934 1.1804
2 2 11 -3.9293 0.3489
2 2 12 -2.3555 2.2746
2 2 13 1.8685 0.8640
2 2 14 -9.3502 0.8288
2 2 15 9.1222 -0.3042
2 2 16 -5.9481 0.9405
2 2 17 21.6165 0.5273
2 2 18 -0.3450 0.0159
2 2 19 7.0976 0.1776
2 2 20 1.0291 0.3430
2 2 21 -4.3082 -0.0614
2 2 22 3.5861 0.3194
2 2 23 -1.0843 0.0460
2 3 2 -17.4116 2.2762
2 3 3 5.5227 -5.0482
2 3 4 6.1825 -0.1835
2 3 5 -9.0693 -1.4347
2 3 6 0.9157 -0.0861
2 3 7 4.9306 -0.6246
2 3 8 8.2582 -0.3021
2 3 9 0.7945 -0.7165
2 3 10 9.3562 -0.3109
2 3 11 -6.6243 -3.0585
2 3 12 -2.5621 -0.2912
2 3 13 2.0302 -2.0962
2 3 14 -3.6703 0.1165
2 3 15 7.4937 -0.7043
2 3 16 -19.8086 0.3141
2 3 17 3.4028 -0.5557
2 3 18 -21.1777 -0.4951
2 3 19 0.8950 0.0297
2 3 20 1.7729 -0.0051
2 3 21 -1.8671 -0.7288
2 3 22 2.8278 0.1298
2 3 23 -2.5187 0.5118
2 4 2 -25.4049 0.3155
2 4 3 2.4732 0.9186
2 4 4 -16.7139 1.5846
2 4 5 -2.6283 0.5561
2 4 6 10.2860 -0.1834
2 4 7 -4.4407 0.7767
2 4 8 -5.3184 0.7750
2 4 9 -8.2995 0.0786
2 4 10 -1.5990 1.8062
2 4 11 2.6105 0.2892
2 4 12 6.9724 3.1319
2 4 13 3.6612 -0.1936
2 4 14 -3.4393 0.4871
2 4 15 7.2417 -0.2460
2 4 16 -5.0390 0.2885
2 4 17 24.6381 -0.0494
2 4 18 -1.9260 -0.1441
2 4 19 8.4446 0.4758
2 4 20 0.1915 0.4478
2 4 21 -4.5982 -0.1556
2 4 22 2.5410 0.0287
2 5 2 2.6097 -3.4858
2 5 3 37.6830 0.2775
2 5 4 -3.6782 -0.9227
2 5 5 3.0422 0.8428
2 5 6 2.4071 -1.5243
2 5 7 -8.0300 0.5653
2 5 8 8.6418 -0.2530
2 5 9 10.9530 -0.2724
2 5 10 -2.3619 -0.3580
2 5 11 -1.5497 -1.9989
2 5 12 -8.6818 0.1924
2 5 13 -3.8134 -0.7916
2 5 14 0.9472 0.1354
2 5 15 4.1242 0.7693
2 5 16 -13.0545 0.0365
2 5 17 1.2242 0.4163
2 5 18 -15.6486 -0.0465
2 5 19 0.8629 -0.0286
2 5 20 2.0661 -0.3698
2 5 21 -2.7090 -0.1533
2 5 22 1.5591 0.5598
2 6 2 -17.9495 -0.7324
2 6 3 0.1572 1.8288
2 6 4 -22.0176 -1.4069
2 6 5 5.7898 1.0261
2 6 6 4.8263 -1.5692
2 6 7 -7.7528 0.6185
2 6 8 -2.5901 -1.3119
2 6 9 -3.8973 0.0449
2 6 10 -8.8893 0.1101
2 6 11 12.1033 0.1410
2 6 12 1.7154 0.2284
2 6 13 1.0570 -0.3727
2 6 14 -0.6710 -1.0569
2 6 15 -0.1335 0.3574
2 6 16 -0.0060 -1.4183
2 6 17 11.1916 -0.2909
2 6 18 0.2152 -0.0967
2 6 19 2.4259 0.2366
2 6 20 1.5813 -0.0136
2 6 21 -3.1541 -0.2614
2 6 22 1.9406 -0.1002
2 7 2 1.2376 -0.4122
2 7 3 9.0553 1.0065
2 7 4 -4.3191 -0.2059
2 7 5 9.0014 1.5516
2 7 6 -1.0551 -0.0027
2 7 7 0.9397 1.9082
2 7 8 7.7177 0.3490
2 7 9 4.7945 0.9948
2 7 10 -5.4201 -0.0228
2 7 11 5.9134 0.8562
2 7 12 -6.2131 0.2010
2 7 13 1.4690 0.8781
2 7 14 4.5350 -0.2914
2 7 15 -1.4389 1.7845
2 7 16 -2.1859 0.0319
2 7 17 -2.1456 0.5722
2 7 18 -1.9130 0.1350
2 7 19 -1.0719 -0.2195
2 7 20 2.1883 0.1758
2 7 21 -1.6852 0.1086
2 8 2 2.9407 -0.0981
2 8 3 1.8872 -1.1291
2 8 4 -1.5453 -0.8200
2 8 5 0.4231 -0.9685
2 8 6 -9.3412 -1.3107
2 8 7 0.0937 -0.8693
2 8 8 -1.5503 -0.7333
2 8 9 -1.6312 -0.4492
2 8 10 -3.5193 -1.0420
2 8 11 3.7047 -0.1524
2 8 12 -5.9047 -0.7754
2 8 13 -2.8885 0.4399
2 8 14 1.5275 -1.1415
2 8 15 -2.4411 -0.0114
2 8 16 2.8392 -0.8452
2 8 17 -1.2474 0.0015
2 8 18 2.5703 0.4378
2 8 19 -1.9874 -0.3175
2 8 20 -0.0942 0.0668
2 8 21 -1.1020 -0.0563
2 9 2 -9.5747 1.4051
2 9 3 -7.6056 0.1255
2 9 4 4.9267 1.6135
2 9 5 4.3798 0.4013
2 9 6 -1.5867 1.1893
2 9 7 5.6198 -0.2793
2 9 8 -3.1526 0.5834
2 9 9 -0.0971 0.1348
2 9 10 1.3251 0.5236
2 9 11 4.7371 0.2599
2 9 12 2.8642 -0.5631
2 9 13 -0.3476 0.2550
2 9 14 3.7310 -0.0945
2 9 15 -3.0431 0.5257
2 9 16 1.5912 -0.0332
2 9 17 -3.1526 -0.5561
2 9 18 2.5631 0.1098
2 9 19 -0.9359 -0.2789
2 9 20 0.4118 0.0725
2 10 2 5.4775 -0.0248
2 10 3 -0.2718 -1.1843
2 10 4 2.1756 0.0912
2 10 5 -4.5498 -1.0088
2 10 6 -1.3954 1.0220
2 10 7 6.0805 -0.2350
2 10 8 -0.8758 0.8145
2 10 9 0.7202 -0.4492
2 10 10 -2.6887 0.5265
2 10 11 -2.8582 0.1678
2 10 12 0.9230 0.5984
2 10 13 -4.6878 0.1792
2 10 14 4.0063 0.0108
2 10 15 -1.9654 0.0098
2 10 16 2.6336 0.5704
2 10 17 -0.1416 0.0555
2 10 18 3.2967 0.4275
2 10 19 -0.4887 -0.0205
2 10 20 -3.1113 0.3335
2 11 2 -1.8459 0.5017
2 11 3 -0.2772 -0.2476
2 11 4 4.4717 0.1848
2 11 5 -2.7895 -1.1384
2 11 6 -2.8914 -0.2324
2 11 7 -3.4494 -1.0415
2 11 8 -1.5236 -0.1536
2 11 9 2.7551 -0.7886
2 11 10 -0.0518 -0.0763
2 11 11 -0.2472 -0.9811
2 11 12 2.4680 0.1801
2 11 13 -4.9262 -0.5095
2 11 14 4.5557 0.1238
2 11 15 -2.9440 -0.5086
2 11 16 -1.8203 -0.1460
2 11 17 -4.5337 -0.2800
2 11 18 -1.4433 0.0779
2 11 19 0.5439 -0.2526
2 12 2 -0.4746 0.6734
2 12 3 -3.5564 0.4090
2 12 4 -0.1518 0.9793
2 12 5 2.0624 0.7972
2 12 6 5.8281 0.7120
2 12 7 0.0105 0.4690
2 12 8 1.7635 0.3503
2 12 9 -1.4379 0.4800
2 12 10 -1.4998 0.6596
2 12 11 2.4883 -0.2881
2 12 12 3.1859 0.3931
2 12 13 -4.7850 -0.4908
2 12 14 2.5505 0.5897
2 12 15 -0.3663 0.0433
2 12 16 5.0486 -0.0312
2 12 17 4.0046 -0.0475
2 12 18 2.4596 0.0551
2 13 2 1.9818 -0.5948
2 13 3 1.6249 -0.8671
2 13 4 0.6966 -1.1192
2 13 5 -1.0986 -0.2942
2 13 6 -1.7610 -0.4818
2 13 7 -4.0517 0.2825
2 13 8 4.6156 -0.5643
2 13 9 -1.3591 -0.0460
2 13 10 -1.9008 0.0002
2 13 11 -0.5792 0.1641
2 13 12 1.4291 0.4380
2 13 13 -0.1869 -0.1937
2 13 14 3.6405 0.2147
2 13 15 -3.1436 -0.0387
2 13 16 -3.7776 0.0298
2 13 17 -4.6524 0.2248
2 14 2 -1.3417 0.2955
2 14 3 -1.6531 1.0707
2 14 4 -2.1287 -0.0530
2 14 5 -1.1673 0.4723
2 14 6 -0.6549 -0.6757
2 14 7 -1.9436 0.3066
2 14 8 3.4287 -0.4433
2 14 9 -2.3825 0.0825
2 14 10 1.6101 -0.4519
2 14 11 -0.1215 -0.1170
2 14 12 -1.3785 -0.3877
2 14 13 -5.2054 0.0107
2 14 14 -0.6672 -0.2728
2 14 15 1.0504 -0.1192
2 14 16 3.7123 0.0198
2 15 2 -3.2421 -0.7634
2 15 3 2.2827 0.4449
2 15 4 6.1479 -0.3853
2 15 5 4.4534 0.8405
2 15 6 2.1818 -0.1368
2 15 7 -0.0070 0.4947
2 15 8 1.8180 0.0168
2 15 9 -2.6556 0.6207
2 15 10 1.7716 0.0100
2 15 11 -0.2452 0.2581
2 15 12 4.9799 -0.2702
2 15 13 2.1056 0.8840
2 15 14 3.2522 -0.1394
2 15 15 -0.1831 0.0709
2 16 2 -0.2966 -0.5714
2 16 3 -3.3740 -0.0039
2 16 4 -4.8891 -0.7908
2 16 5 -7.8420 0.0516
2 16 6 -2.7945 -0.1311
2 16 7 -0.9946 -0.1507
2 16 8 -0.2208 -0.5361
2 16 9 -2.1145 0.0920
2 16 10 1.8602 -0.2164
2 16 11 -3.1857 0.1567
2 16 12 0.0647 -0.6058
2 16 13 -6.0304 0.1331
2 16 14 -1.3773 -0.8396
2 17 2 -1.5242 0.6819
2 17 3 3.0884 0.3515
2 17 4 8.7964 0.1250
2 17 5 2.4582 -0.3353
2 17 6 4.5336 0.3687
2 17 7 2.6338 -0.2531
2 17 8 2.2777 -0.0125
2 17 9 -0.0754 0.4803
2 17 10 1.2993 -0.2618
2 17 11 -2.6644 0.3601
2 17 12 4.0777 0.4384
2 18 2 -0.9714 -0.1765
2 18 3 -4.4142 -0.3674
2 18 4 -0.7586 0.8097
2 18 5 -6.7378 -0.3640
2 18 6 -1.8740 1.1445
2 18 7 -4.0605 -0.4780
2 18 8 -2.4402 0.1612
2 18 9 -1.5908 0.3776
2 18 10 2.7313 -0.8546
2 19 2 0.4956 0.5624
2 19 3 -0.7745 -0.8986
2 19 4 5.1897 -0.0724
2 19 5 -0.1323 -1.3862
2 19 6 4.8049 0.5901
2 19 7 2.7598 -1.3471
2 20 2 0.5553 0.3141
3 0 3 19.6872 -8.0156
3 0 5 3.6303 3.2848
3 0 7 -0.1177 3.2925
3 0 9 0.1748 8.8578
3 0 11 2.7746 3.6087
3 0 13 9.8782 0.8837
3 0 15 9.2559 2.0440
3 0 17 6.3135 1.6322
3 0 19 4.8720 0.8119
3 0 21 2.4927 -0.0692
3 0 23 -0.9660 0.5669
3 1 3 5.9227 5.0910
3 1 4 -15.3356 1.0603
3 1 5 -6.7390 6.0592
3 1 6 3.0045 -2.7026
3 1 7 8.8830 4.5208
3 1 8 -0.7575 -5.3656
3 1 9 -2.2961 3.8842
3 1 10 -2.7827 -5.8057
3 1 11 -10.0506 3.3285
3 1 12 -5.4350 -0.2796
3 1 13 1.2863 1.5062
3 1 14 -9.9006 -1.0180
3 1 15 0.1426 2.1203
3 1 16 -6.7277 -1.5705
3 1 17 -0.0831 0.5375
3 1 18 -4.8248 -1.2016
3 1 19 2.0894 0.8613
3 1 20 -4.2252 -0.1270
3 1 21 1.7031 -0.0019
3 1 22 -0.4133 0.0541
3 2 3 18.3109 -4.6964
3 2 4 7.5213 -3.0415
3 2 5 6.5484 1.3643
3 2 6 -3.3942 -4.4188
3 2 7 -9.0816 3.2829
3 2 8 -9.2274 -2.0593
3 2 9 8.5970 3.2810
3 2 10 15.7138 -3.5056
3 2 11 3.5466 0.5572
3 2 12 5.5811 -0.6735
3 2 13 5.5802 -1.1767
3 2 14 -3.4444 -1.3662
3 2 15 7.0402 0.7998
3 2 16 0.9365 -0.6937
3 2 17 3.0414 0.9525
3 2 18 -1.2676 -0.2063
3 2 19 4.2745 0.3314
3 2 20 -3.4196 -0.7366
3 2 21 2.7050 -0.1453
3 2 22 -1.7350 0.2486
3 3 3 1.2912 1.0706
3 3 4 -23.0772 0.9674
3 3 5 -3.6959 2.1770
3 3 6 9.5556 -2.3779
3 3 7 11.7659 1.4070
3 3 8 0.6745 -1.3580
3 3 9 -7.2079 2.0387
3 3 10 -11.3586 1.1989
3 3 11 -12.5476 1.0494
3 3 12 -0.4180 1.9340
3 3 13 2.5451 0.0841
3 3 14 -4.7289 1.2665
3 3 15 2.2027 0.9234
3 3 16 -1.7727 -0.9762
3 3 17 -1.4186 -0.2193
3 3 18 -2.1442 0.1995
3 3 19 2.0086 0.6303
3 3 20 -3.2866 -0.2271
3 3 21 3.5663 0.4172
3 3 22 -0.4260 0.7768
3 4 3 9.6682 -0.7811
3 4 4 7.9445 -0.2634
3 4 5 11.4205 0.0759
3 4 6 -10.2386 0.1458
3 4 7 -11.6342 1.5258
3 4 8 0.7948 -0.9768
3 4 9 8.2850 -2.4644
3 4 10 9.8127 -0.4772
3 4 11 4.3359 -2.3632
3 4 12 1.4640 0.0352
3 4 13 -0.0372 -2.2523
3 4 14 -5.0123 -0.2617
3 4 15 0.2724 0.3363
3 4 16 1.0014 -0.1325
3 4 17 0.5890 0.0930
3 4 18 1.5672 0.0275
3 4 19 1.7490 -0.2591
3 4 20 -2.6646 -0.6573
3 4 21 0.6908 -0.1753
3 4 22 -2.3248 -0.4008
3 5 3 -12.8612 -0.7112
3 5 4 -13.2851 0.5476
3 5 5 5.6819 -1.4452
3 5 6 -1.0417 -0.4110
3 5 7 4.7903 -0.5151
3 5 8 3.5450 1.3296
3 5 9 -6.5396 -0.3224
3 5 10 -4.5174 2.5187
3 5 11 -1.7779 -0.4935
3 5 12 -0.4945 1.7013
3 5 13 4.5992 0.1292
3 5 14 2.6424 0.2581
3 5 15 1.4921 -0.2925
3 5 16 0.6360 -0.7313
3 5 17 -3.9227 0.1935
3 5 18 -1.5267 0.3640
3 5 19 0.7476 -0.2251
3 5 20 0.9657 0.0682
3 5 21 1.8202 0.9520
3 5 22 0.6608 0.6130
3 6 3 -0.6064 0.1694
3 6 4 6.2056 1.0011
3 6 5 7.9135 -0.1993
3 6 6 -8.0564 1.8573
3 6 7 1.2842 -0.6974
3 6 8 1.9991 1.0484
3 6 9 -2.6890 -1.2290
3 6 10 1.9174 1.4995
3 6 11 0.4748 -1.0216
3 6 12 -3.4315 -0.1246
3 6 13 -2.5068 0.3198
3 6 14 -3.4554 0.7458
3 6 15 -2.9223 0.7792
3 6 16 4.9310 -0.0704
3 6 17 2.0673 0.3219
3 6 18 0.4634 0.4210
3 6 19 -0.6600 -0.2339
3 6 20 -1.3890 -0.1553
3 6 21 -2.5609 -0.2631
3 7 3 -9.0531 -0.2197
3 7 4 1.7110 -0.6325
3 7 5 1.5169 -1.2827
3 7 6 -6.6794 0.4396
3 7 7 2.4942 -1.4218
3 7 8 -0.5753 -0.0208
3 7 9 -0.4199 -1.8281
3 7 10 3.6317 0.2697
3 7 11 0.9756 -0.5747
3 7 12 2.3307 -0.8480
3 7 13 4.1011 -0.4924
3 7 14 3.2430 -1.0805
3 7 15 -4.2956 -0.5164
3 7 16 -0.9031 -0.3811
3 7 17 -2.8006 -0.1891
3 7 18 -1.3263 -0.2303
3 7 19 3.0902 -0.4836
3 7 20 2.4909 0.4981
3 7 21 0.0779 0.3775
3 8 3 -4.2805 1.1356
3 8 4 0.9131 0.0128
3 8 5 -0.8759 0.4478
3 8 6 0.4520 0.5906
3 8 7 5.6210 0.5515
3 8 8 -1.8190 1.0434
3 8 9 -0.6723 0.5335
3 8 10 -0.3244 0.6944
3 8 11 -4.6400 0.5241
3 8 12 -2.1793 0.5069
3 8 13 -3.3207 1.3528
3 8 14 2.2510 0.2928
3 8 15 0.2942 0.0811
3 8 16 5.0291 0.3678
3 8 17 1.5016 0.3823
3 8 18 -3.4132 0.2464
3 8 19 -0.3478 -0.4608
3 8 20 -1.9010 0.0975
3 8 21 -2.3788 0.2299
3 9 3 -0.1645 0.4275
3 9 4 4.2434 -0.8661
3 9 5 -1.3554 0.5997
3 9 6 -0.6621 -0.7646
3 9 7 -0.7893 0.1676
3 9 8 -4.0915 -0.9323
3 9 9 1.3435 0.5918
3 9 10 2.2441 -0.2415
3 9 11 0.9145 -0.3822
3 9 12 5.3425 -0.7064
3 9 13 -1.4653 0.1285
3 9 14 0.3852 -0.0280
3 9 15 -5.0150 -0.0436
3 9 16 -1.3702 0.0142
3 9 17 1.8307 -0.1732
3 9 18 -0.1228 0.2559
3 9 19 3.6719 0.2859
3 9 20 0.5198 0.1603
3 10 3 -2.8820 0.1804
3 10 4 -0.4060 -0.8761
3 10 5 -2.2663 0.5339
3 10 6 2.0530 -0.8602
3 10 7 1.2491 0.5660
3 10 8 0.0640 -1.6444
3 10 9 2.1460 0.3120
3 10 10 -1.0849 -0.7868
3 10 11 -4.2515 -0.0029
3 10 12 0.4323 -0.1949
3 10 13 -3.3323 -0.2433
3 10 14 4.8195 -0.6854
3 10 15 1.2372 -0.1582
3 10 16 -0.7744 0.1270
3 10 17 -0.0308 -0.2845
3 10 18 -4.0286 -0.6658
3 10 19 -0.2182 -0.2556
3 11 3 -1.2304 0.3459
3 11 4 0.1134 0.2587
3 11 5 -1.4119 0.7318
3 11 6 1.8500 0.1180
3 11 7 -0.3427 1.3474
3 11 8 -1.6967 0.1026
3 11 9 -0.2284 1.4076
3 11 10 0.4258 -0.0004
3 11 11 1.5132 0.5530
3 11 12 4.5324 0.5595
3 11 13 -3.4653 0.8315
3 11 14 1.4992 -0.0239
3 11 15 -1.3502 0.2812
3 11 16 -0.6850 0.2432
3 11 17 4.5867 0.4501
3 11 18 1.0599 0.1848
3 11 19 2.3040 0.6771
3 12 3 1.9571 -0.7990
3 12 4 2.9544 0.0469
3 12 5 -1.2071 -0.6341
3 12 6 -0.1057 -0.5902
3 12 7 -0.5079 -0.6613
3 12 8 0.7587 -0.4578
3 12 9 1.6806 -0.0946
3 12 10 -0.9635 -0.4516
3 12 11 -2.2419 -0.4133
3 12 12 -0.6441 -0.5448
3 12 13 -3.9853 0.1598
3 12 14 3.3414 -0.4203
3 12 15 -0.3849 0.1382
3 12 16 -3.1048 -0.2534
3 12 17 -0.5706 -0.1703
3 12 18 -3.3627 -0.3618
3 13 3 -1.9313 -0.3849
3 13 4 -0.3606 0.7313
3 13 5 -1.0024 -0.2706
3 13 6 1.7695 0.6844
3 13 7 -0.7686 -0.3756
3 13 8 -2.0656 0.2644
3 13 9 -1.1631 -0.6866
3 13 10 -0.8157 0.2805
3 13 11 2.9250 -0.0180
3 13 12 3.0205 -0.2154
3 13 13 -0.7288 -0.0279
3 13 14 2.2390 -0.3950
3 13 15 -0.5948 0.2635
3 13 16 0.2340 0.0486
3 13 17 3.4345 -0.2352
3 14 3 1.1179 -0.1649
3 14 4 -0.4035 0.7041
3 14 5 -2.2644 -0.4778
3 14 6 1.2324 0.6489
3 14 7 0.9516 0.0746
3 14 8 3.1242 1.1089
3 14 9 2.8970 -0.2758
3 14 10 -0.9498 0.8866
3 14 11 -0.0643 0.2088
3 14 12 -3.1844 0.5316
3 14 13 -1.8584 0.1845
3 14 14 0.5829 0.0478
3 14 15 -0.3619 -0.0622
3 14 16 -0.8060 0.2706
3 15 3 1.6829 -0.1858
3 15 4 2.7895 -0.0283
3 15 5 1.2292 -0.7745
3 15 6 0.6407 -0.3219
3 15 7 -3.7122 -0.4799
3 15 8 -2.2016 -0.0644
3 15 9 -2.4267 -0.8796
3 15 10 -2.7510 -0.0924
3 15 11 2.6748 -0.8012
3 15 12 0.0038 -0.0655
3 15 13 2.9337 -0.3126
3 15 14 -0.4002 0.5968
3 15 15 -0.0433 -0.2800
3 16 3 -3.0925 0.5546
3 16 4 -3.5308 0.2371
3 16 5 -1.8567 0.4024
3 16 6 0.5832 0.0982
3 16 7 -0.2713 0.2943
3 16 8 3.3475 -0.2259
3 16 9 2.7309 0.1071
3 16 10 0.7788 0.5718
3 16 11 2.2935 0.1402
3 16 12 -3.7573 0.1161
3 16 13 0.7021 -0.7516
3 17 3 1.6776 0.2646
3 17 4 2.7452 -0.5101
3 17 5 2.5440 0.2028
3 17 6 1.8892 -0.2006
3 17 7 -0.0807 0.9140
3 17 8 0.3028 -0.2326
3 17 9 -2.1399 0.3388
3 17 10 -3.3530 -0.1457
3 17 11 1.2860 0.0298
3 18 3 -2.0447 0.1348
3 18 4 -1.9057 -0.3106
3 18 5 -2.3869 0.0582
3 18 6 -2.9014 -0.9363
3 18 7 -2.8813 0.2327
3 18 8 -0.4583 -1.0007
3 18 9 1.4932 0.3100
3 19 3 0.2202 -0.2084
3 19 4 1.6826 0.3070
3 19 5 2.1949 0.6889
3 19 6 3.3610 -0.0153
4 0 4 0.4487 5.9710
4 0 6 24.9458 -21.2657
4 0 8 -6.4420 -16.8244
4 0 10 -22.2815 -8.3933
4 0 12 -10.4138 -7.9749
4 0 14 -0.2068 -4.4744
4 0 16 -4.0309 -4.2977
4 0 18 -11.2580 -2.6075
4 0 20 -4.5172 -2.2183
4 0 22 0.8496 -0.6398
4 1 4 -11.5775 -5.6236
4 1 5 -14.5077 6.6670
4 1 6 8.1929 -4.5507
4 1 7 -9.9773 19.3155
4 1 8 6.9687 -5.7859
4 1 9 14.9588 8.7582
4 1 10 -4.2299 -1.9249
4 1 11 17.0469 6.5820
4 1 12 1.7130 -3.1423
4 1 13 4.4174 4.6922
4 1 14 3.5266 -0.9362
4 1 15 -0.0830 3.6318
4 1 16 3.5096 -0.9121
4 1 17 8.5400 2.9491
4 1 18 2.9801 -0.8357
4 1 19 7.6896 2.1366
4 1 20 -1.6234 -0.1169
4 1 21 0.7700 1.3897
4 1 22 -1.6774 -0.6333
4 2 4 4.9788 4.4036
4 2 5 2.7152 1.8629
4 2 6 3.3478 -9.7424
4 2 7 -16.7354 5.1164
4 2 8 1.3719 -9.6694
4 2 9 1.8846 2.1792
4 2 10 -11.2751 -3.3888
4 2 11 2.4378 1.4714
4 2 12 -12.3619 -2.6233
4 2 13 -4.8035 1.7866
4 2 14 0.6457 -2.6502
4 2 15 -5.2535 -0.4701
4 2 16 -3.4074 -2.0179
4 2 17 -6.3150 1.0435
4 2 18 -6.8318 -1.9727
4 2 19 -0.1932 -0.2737
4 2 20 -1.5491 -1.0826
4 2 21 3.9239 0.3736
4 2 22 -0.6392 -0.8863
4 3 4 -10.9028 -2.0850
4 3 5 4.6223 0.4513
4 3 6 12.4302 -1.2757
4 3 7 3.5738 3.7486
4 3 8 3.4981 -2.4523
4 3 9 -5.8393 2.5078
4 3 10 -3.7775 -0.4599
4 3 11 11.2137 -1.6202
4 3 12 1.5272 -1.6864
4 3 13 5.2237 1.0203
4 3 14 3.9729 0.1033
4 3 15 -1.2526 0.7357
4 3 16 6.9530 -0.2987
4 3 17 4.0799 1.0967
4 3 18 3.2619 -0.3428
4 3 19 -0.3187 0.7579
4 3 20 -4.5019 0.2052
4 3 21 0.3593 0.1790
4 3 22 -2.8883 -0.6250
4 4 4 11.4772 0.5762
4 4 5 -7.4889 0.0764
4 4 6 -13.9170 2.3843
4 4 7 -2.2923 -0.1685
4 4 8 5.2981 0.4813
4 4 9 4.3844 0.5061
4 4 10 3.2480 3.1209
4 4 11 -0.7160 0.7530
4 4 12 -8.4424 2.3581
4 4 13 0.6908 0.4543
4 4 14 0.5367 -0.3151
4 4 15 -3.8858 0.1960
4 4 16 -0.3025 0.3127
4 4 17 -4.8178 0.3675
4 4 18 1.8040 -0.5209
4 4 19 2.9596 0.2390
4 4 20 3.2314 0.5928
4 4 21 5.1139 0.1303
4 4 22 -1.3365 -0.2978
4 5 4 5.2191 1.0603
4 5 5 0.6767 -1.6380
4 5 6 4.4371 1.1244
4 5 7 5.7930 -3.5020
4 5 8 -8.4291 1.0949
4 5 9 -7.3383 -3.2769
4 5 10 -0.2118 -0.4881
4 5 11 0.3793 -3.9748
4 5 12 -1.2376 0.4277
4 5 13 2.7573 -0.8164
4 5 14 -2.6423 -0.6611
4 5 15 -1.5437 -0.3262
4 5 16 3.3987 0.0644
4 5 17 -1.9339 -0.3248
4 5 18 -0.3295 -0.5103
4 5 19 -6.1946 -0.5987
4 5 20 -6.0674 -0.2509
4 5 21 -1.7437 -0.5488
4 6 4 10.1545 -0.2900
4 6 5 -7.0078 -1.1224
4 6 6 0.1137 1.6992
4 6 7 5.0178 -1.6858
4 6 8 -0.3806 3.0105
4 6 9 5.3481 -0.3207
4 6 10 4.5152 2.9859
4 6 11 -0.6578 -1.1655
4 6 12 -0.1833 1.7098
4 6 13 4.9461 -0.1925
4 6 14 0.3102 -0.0659
4 6 15 1.8313 0.1453
4 6 16 1.5695 0.2435
4 6 17 -1.7453 -0.3530
4 6 18 4.5245 0.9158
4 6 19 4.3371 0.6848
4 6 20 6.3036 0.4731
4 6 21 5.1873 -0.1340
4 7 4 3.2098 1.5938
4 7 5 -8.1278 0.7448
4 7 6 0.8027 0.9956
4 7 7 -0.7756 -0.4925
4 7 8 -3.7201 0.6065
4 7 9 -0.6146 -1.1838
4 7 10 -1.9650 1.2914
4 7 11 -2.7357 -0.7655
4 7 12 -1.6027 1.2956
4 7 13 -0.4891 -0.1963
4 7 14 -5.6948 0.1303
4 7 15 -0.9945 0.7705
4 7 16 1.4102 0.7008
4 7 17 -0.2088 -0.9743
4 7 18 -1.0702 0.0594
4 7 19 -5.8981 -0.4008
4 7 20 -5.4479 -0.2303
4 8 4 2.3559 -1.2423
4 8 5 1.3181 -0.5313
4 8 6 4.0711 -1.6397
4 8 7 -2.3681 0.0725
4 8 8 0.2054 -0.8566
4 8 9 2.1999 -0.8912
4 8 10 0.9934 -0.8784
4 8 11 0.2798 -1.0705
4 8 12 1.1560 -0.1010
4 8 13 4.4381 -0.7675
4 8 14 1.2846 -0.9679
4 8 15 0.5303 -0.4970
4 8 16 -2.0425 0.0414
4 8 17 -2.7153 -0.6096
4 8 18 -0.3598 0.6490
4 8 19 4.2226 -0.1238
4 8 20 6.1209 -0.3245
4 9 4 -1.8199 -0.7009
4 9 5 0.6823 1.6478
4 9 6 1.5166 -0.7366
4 9 7 -0.2911 1.7683
4 9 8 1.6551 0.1610
4 9 9 -0.8196 1.6605
4 9 10 -0.4536 0.1857
4 9 11 0.2934 0.8934
4 9 12 -1.8310 0.1344
4 9 13 -1.5553 0.8043
4 9 14 -2.4218 0.5387
4 9 15 1.0975 0.4588
4 9 16 5.8745 0.0113
4 9 17 5.1630 -0.2408
4 9 18 -1.3107 0.6769
4 9 19 -1.5637 0.2379
4 10 4 -3.0434 -0.6386
4 10 5 0.3975 1.3006
4 10 6 -4.9348 -1.1199
4 10 7 -1.8521 0.5992
4 10 8 0.7376 -1.2048
4 10 9 -0.0160 0.2495
4 10 10 -0.7195 -0.7194
4 10 11 -0.0724 1.0498
4 10 12 0.4812 -0.9555
4 10 13 3.7900 0.0455
4 10 14 0.4514 -0.3374
4 10 15 -5.2740 0.4655
4 10 16 -4.7791 -0.1251
4 10 17 -4.3481 -0.0962
4 10 18 -4.0234 -0.3517
4 10 19 3.4234 -0.1158
4 11 4 0.3212 -0.9799
4 11 5 6.7769 -0.2155
4 11 6 0.8911 -0.8898
4 11 7 3.0698 0.2278
4 11 8 -1.5471 -0.5400
4 11 9 0.4116 -0.2420
4 11 10 0.7945 -1.0967
4 11 11 0.3885 0.4548
4 11 12 -3.1793 -0.9593
4 11 13 -0.9515 0.4523
4 11 14 0.6435 -0.6866
4 11 15 2.4955 -0.0772
4 11 16 7.9656 -0.5364
4 11 17 4.9410 0.6097
4 11 18 -0.2164 -0.1135
4 12 4 -2.7191 1.3194
4 12 5 -1.3070 0.0548
4 12 6 -4.8120 0.7886
4 12 7 2.5200 0.5190
4 12 8 -1.8409 0.7670
4 12 9 1.3417 0.6541
4 12 10 -0.6885 0.4140
4 12 11 1.0693 0.6686
4 12 12 0.9640 -0.2372
4 12 13 2.8980 0.9618
4 12 14 -0.7275 0.1026
4 12 15 -5.6442 0.3972
4 12 16 -3.5100 -0.3427
4 12 17 -4.3185 0.5145
4 13 4 -0.1442 0.9331
4 13 5 2.1368 -1.1754
4 13 6 -1.3237 0.3888
4 13 7 2.4124 -0.9798
4 13 8 -3.2767 -0.2664
4 13 9 1.5212 -0.4287
4 13 10 -0.9460 0.2052
4 13 11 -0.7280 -0.3036
4 13 12 -2.4539 -0.5137
4 13 13 -0.4370 -0.1290
4 13 14 1.4980 -0.2375
4 13 15 1.8307 0.0195
4 13 16 5.2771 -0.0689
4 14 4 -0.2190 0.4770
4 14 5 1.7871 -0.8931
4 14 6 -0.6533 0.7317
4 14 7 2.1279 -0.4480
4 14 8 -2.1794 0.1420
4 14 9 2.3443 -0.6719
4 14 10 0.2301 0.2163
4 14 11 1.2643 -0.3923
4 14 12 0.4005 0.4824
4 14 13 -0.0733 0.1473
4 14 14 0.1192 0.0907
4 14 15 -3.9140 -0.3789
4 15 4 -2.6833 0.5355
4 15 5 -0.9308 0.1636
4 15 6 -1.0301 0.3758
4 15 7 2.2572 0.1959
4 15 8 -1.8131 0.9495
4 15 9 0.1625 0.0207
4 15 10 -1.7870 0.8663
4 15 11 0.2753 -0.6127
4 15 12 0.3369 0.2031
4 15 13 -0.4084 -0.3729
4 15 14 2.7883 0.0537
4 16 4 0.8938 -0.7083
4 16 5 1.5671 0.3179
4 16 6 -2.1625 -0.7042
4 16 7 -0.2363 -0.3295
4 16 8 -1.1469 -0.1726
4 16 9 2.4332 -1.0036
4 16 10 -0.0405 0.6483
4 16 11 -0.1699 -0.5195
4 16 12 -1.1358 0.6549
4 17 4 -1.2693 -0.4448
4 17 5 1.6490 0.3624
4 17 6 1.3695 -0.6924
4 17 7 2.7768 0.5040
4 17 8 -1.6852 0.4333
4 17 9 -0.1426 -0.6586
4 17 10 -0.7664 0.7796
4 18 4 -0.7346 -0.0767
4 18 5 -1.1887 0.6438
4 18 6 -3.3887 0.0626
4 18 7 0.0563 0.5298
4 18 8 -0.9323 0.1943
4 19 4 1.0984 -0.5140
5 0 5 9.6325 -0.3577
5 0 7 -8.3551 7.6473
5 0 9 -6.5065 9.2490
5 0 11 -1.3184 -0.4393
5 0 13 -4.8456 0.9623
5 0 15 -4.4431 1.2247
5 0 17 -0.8998 1.1594
5 0 19 1.4781 0.5188
5 0 21 0.8243 0.1999
5 1 5 16.3115 5.3961
5 1 6 -0.2796 -2.1624
5 1 7 0.7044 0.7355
5 1 8 7.8314 -9.0459
5 1 9 -3.2474 2.6618
5 1 10 2.2096 -2.6317
5 1 11 -2.3314 0.8487
5 1 12 2.5983 0.6292
5 1 13 -2.6735 0.5497
5 1 14 5.6080 -1.2396
5 1 15 1.4340 1.1134
5 1 16 1.7521 -1.0217
5 1 17 2.8156 -0.0252
5 1 18 -1.5162 -0.8476
5 1 19 1.1960 0.4756
5 1 20 -1.4924 -0.5858
5 1 21 0.8331 0.5446
5 2 5 -0.0809 1.7178
5 2 6 -13.8796 -0.8358
5 2 7 -0.1766 4.2020
5 2 8 5.7997 -0.2091
5 2 9 -3.5593 2.8128
5 2 10 2.0484 -1.2378
5 2 11 -0.5014 -0.2324
5 2 12 4.8509 1.3844
5 2 13 -5.1495 -0.3371
5 2 14 0.5220 -0.8880
5 2 15 -3.1347 1.1886
5 2 16 -4.1195 0.1772
5 2 17 3.0637 0.8722
5 2 18 -3.4811 0.2169
5 2 19 3.1244 0.4827
5 2 20 -1.1254 -0.2520
5 2 21 -0.5641 1.1323
5 3 5 23.1451 1.5598
5 3 6 -2.3977 -3.5351
5 3 7 -1.0237 0.0494
5 3 8 -1.3294 0.7891
5 3 9 -2.1844 0.7985
5 3 10 1.9178 0.3447
5 3 11 -2.0961 -0.9033
5 3 12 2.3788 1.0107
5 3 13 -2.8410 -0.0180
5 3 14 5.4759 0.0277
5 3 15 2.8579 0.3773
5 3 16 -3.4517 -1.3656
5 3 17 4.4178 -0.4045
5 3 18 -5.9026 -0.1467
5 3 19 2.1720 0.0529
5 3 20 -1.0929 -0.6093
5 3 21 1.6829 -0.1769
5 4 5 -5.9995 2.1534
5 4 6 -3.0968 -0.7869
5 4 7 7.0950 -0.6040
5 4 8 0.4720 -1.4240
5 4 9 -2.8190 -2.9758
5 4 10 -1.4738 0.4058
5 4 11 -1.9756 -0.6998
5 4 12 1.0518 -0.5630
5 4 13 -5.9551 -1.2148
5 4 14 -0.6343 -0.4420
5 4 15 1.0361 0.9951
5 4 16 -3.5636 -0.1089
5 4 17 7.4115 0.4749
5 4 18 -2.8260 -0.1446
5 4 19 3.8074 -0.1724
5 4 20 -1.4589 0.1638
5 4 21 -0.3769 0.2520
5 5 5 0.1238 -2.0857
5 5 6 -3.4028 -0.4840
5 5 7 0.0789 2.5513
5 5 8 -0.7370 2.7674
5 5 9 4.7119 0.1209
5 5 10 4.7492 1.6753
5 5 11 1.8601 1.0256
5 5 12 5.8257 0.8650
5 5 13 0.6638 1.0021
5 5 14 2.2997 -0.0666
5 5 15 1.3016 0.0850
5 5 16 -6.9355 -0.6153
5 5 17 3.3609 0.5773
5 5 18 -4.3550 0.1517
5 5 19 1.1181 -0.0074
5 5 20 -2.2524 0.8141
5 5 21 0.9580 -0.3113
5 6 5 2.4049 0.2126
5 6 6 6.2535 -0.4508
5 6 7 0.8516 -0.7680
5 6 8 -7.2572 -0.9243
5 6 9 -3.5674 -1.3020
5 6 10 -3.3215 -0.5535
5 6 11 -7.3854 -0.7619
5 6 12 -2.2943 -1.3445
5 6 13 -5.0651 0.3556
5 6 14 1.4727 0.0959
5 6 15 5.0682 0.0677
5 6 16 -3.6423 -0.4094
5 6 17 3.7918 0.2600
5 6 18 -1.6953 -0.2822
5 6 19 1.9449 -0.9918
5 6 20 -0.1192 0.2494
5 7 5 -10.6504 -0.5885
5 7 6 0.7355 -0.3797
5 7 7 3.1176 -0.2540
5 7 8 1.4510 -0.3674
5 7 9 4.7454 0.0539
5 7 10 5.4086 0.4513
5 7 11 3.0298 0.5692
5 7 12 7.4722 -0.8074
5 7 13 -2.6868 -0.1960
5 7 14 -2.4695 -0.2219
5 7 15 0.7873 -0.2058
5 7 16 -3.9540 -0.0373
5 7 17 4.9488 0.1653
5 7 18 0.3211 0.2483
5 7 19 -1.3275 -0.0703
5 7 20 -3.5044 1.5693
5 8 5 4.2180 1.5490
5 8 6 2.9042 0.7331
5 8 7 -2.8175 1.3890
5 8 8 -2.2786 0.9801
5 8 9 -0.5527 0.3074
5 8 10 -2.9748 0.4068
5 8 11 -6.5240 0.7331
5 8 12 1.2634 0.7311
5 8 13 0.3138 0.6691
5 8 14 4.1159 0.4527
5 8 15 3.7211 -0.0357
5 8 16 -6.5987 0.3715
5 8 17 -0.1785 0.0986
5 8 18 -0.3850 -0.0690
5 8 19 0.4510 -0.8497
5 9 5 -2.8701 0.3979
5 9 6 1.0565 -1.6808
5 9 7 -2.4381 -1.0396
5 9 8 -0.6791 -0.6377
5 9 9 -0.3190 -1.0668
5 9 10 2.7076 -0.4700
5 9 11 1.3919 -1.2759
5 9 12 -0.2005 -0.4248
5 9 13 -5.6578 -0.4535
5 9 14 -3.6052 -0.1491
5 9 15 3.1682 -0.5047
5 9 16 -0.7846 -0.1579
5 9 17 4.2837 -0.0624
5 9 18 0.0472 0.2615
5 9 19 -2.6495 -0.3332
5 10 5 1.0321 0.4021
5 10 6 1.8753 0.1859
5 10 7 1.7782 0.3053
5 10 8 5.7096 0.5930
5 10 9 -1.0806 0.0829
5 10 10 -1.2169 1.2843
5 10 11 0.3760 -0.1030
5 10 12 3.1909 0.3427
5 10 13 4.8988 -0.1990
5 10 14 0.2066 0.1802
5 10 15 0.9272 0.3659
5 10 16 -4.5735 0.0316
5 10 17 1.8619 -0.2647
5 10 18 0.6845 0.1246
5 11 5 1.4299 0.0710
5 11 6 -3.7939 0.9994
5 11 7 -6.3805 0.1864
5 11 8 -0.3290 0.5037
5 11 9 -1.8784 -0.3649
5 11 10 1.5457 0.3779
5 11 11 -1.2996 -0.0239
5 11 12 -4.5203 0.6187
5 11 13 -0.4903 0.2060
5 11 14 -2.0881 -0.2316
5 11 15 3.1360 0.2045
5 11 16 -1.8688 0.1909
5 11 17 0.2014 0.0836
5 12 5 1.3927 -1.6251
5 12 6 2.6192 -0.2389
5 12 7 3.2744 -1.3446
5 12 8 3.0913 -0.4235
5 12 9 -2.3811 -0.5288
5 12 10 0.7876 -0.6988
5 12 11 1.1028 -0.4705
5 12 12 1.1944 -0.4384
5 12 13 2.1101 0.0524
5 12 14 -3.4882 -0.3300
5 12 15 1.2302 -0.1054
5 12 16 0.6251 -0.2784
5 13 5 0.3445 0.3049
5 13 6 -3.2891 1.0681
5 13 7 -1.3803 0.2927
5 13 8 0.4977 0.7356
5 13 9 0.5550 1.1120
5 13 10 0.7959 0.0771
5 13 11 -1.9965 0.6958
5 13 12 0.4564 -0.2898
5 13 13 2.3355 0.1764
5 13 14 -0.3936 -0.0179
5 13 15 0.7501 0.2821
5 14 5 1.1625 0.3157
5 14 6 -0.5570 -0.2818
5 14 7 0.2978 -0.1788
5 14 8 -2.2196 -0.5125
5 14 9 0.2917 0.1387
5 14 10 0.4306 -0.8755
5 14 11 -1.3826 0.5679
5 14 12 0.3561 0.0180
5 14 13 -1.6005 0.2401
5 14 14 -1.8792 -0.0230
5 15 5 1.0728 0.2300
5 15 6 0.4271 -0.8238
5 15 7 3.1098 -0.1599
5 15 8 -0.8937 -0.4604
5 15 9 1.6062 0.2483
5 15 10 -0.3996 -0.5602
5 15 11 -0.6406 0.1860
5 15 12 2.0828 -0.1690
5 15 13 0.4385 -0.3436
5 16 5 0.1366 0.9812
5 16 6 -3.3404 0.3139
5 16 7 0.3364 0.6427
5 16 8 -2.2426 0.9260
5 16 9 1.6637 0.3905
5 16 10 -0.7856 -0.1266
5 16 11 -0.6127 -0.2341
5 17 5 2.4455 -0.1217
5 17 6 -0.6912 -0.2222
5 17 7 2.4888 -1.5065
5 17 8 -1.8377 -0.0149
5 17 9 1.1796 -0.8140
5 18 5 0.9544 -0.3430
5 18 6 -2.7302 1.0423
6 0 6 -14.2796 -8.9511
6 0 8 0.4397 11.3475
6 0 10 5.4939 7.7276
6 0 12 1.5999 6.3744
6 0 14 -12.4083 5.4165
6 0 16 -8.9598 2.8947
6 0 18 -1.1333 2.2228
6 0 20 -1.2010 1.3593
6 1 6 -1.8356 -5.9348
6 1 7 7.2019 -2.1559
6 1 8 0.9512 -1.9424
6 1 9 -3.7817 -8.9356
6 1 10 0.0711 -0.2186
6 1 11 -4.8209 -5.1694
6 1 12 -4.8807 -2.1702
6 1 13 6.4777 -5.4170
6 1 14 -1.0066 -0.3300
6 1 15 12.9800 -3.1714
6 1 16 0.3202 -0.5423
6 1 17 2.3272 -1.9419
6 1 18 -1.0542 -0.9590
6 1 19 1.3847 -1.1396
6 1 20 -1.1828 -0.7732
6 2 6 -5.8675 -6.1050
6 2 7 3.3002 3.9350
6 2 8 -2.6123 3.6133
6 2 9 -3.9767 -1.9730
6 2 10 4.7371 5.1457
6 2 11 5.5215 1.0207
6 2 12 -0.7318 3.3266
6 2 13 5.4321 0.3423
6 2 14 -13.0425 2.7109
6 2 15 0.8870 -0.3524
6 2 16 -4.5724 1.3797
6 2 17 0.4582 0.3792
6 2 18 0.5870 0.6111
6 2 19 3.0061 0.3932
6 2 20 -2.6151 0.2521
6 3 6 -3.4656 -2.2994
6 3 7 2.3485 2.2561
6 3 8 2.0601 0.3278
6 3 9 1.6591 -2.0270
6 3 10 -0.1010 0.3693
6 3 11 -4.0326 -2.6355
6 3 12 -7.0652 -0.5742
6 3 13 9.3322 -0.5657
6 3 14 -4.7210 0.3742
6 3 15 7.7097 -0.8383
6 3 16 -1.6171 -0.0558
6 3 17 -2.8367 0.1638
6 3 18 -2.0359 0.0598
6 3 19 1.8249 0.2554
6 3 20 -2.7500 0.1310
6 4 6 5.1212 -1.4939
6 4 7 0.1096 -0.8094
6 4 8 -4.1859 -1.9347
6 4 9 -1.7789 0.9826
6 4 10 1.1429 1.3996
6 4 11 3.4538 0.4098
6 4 12 -1.4027 -0.4292
6 4 13 5.8860 0.0958
6 4 14 -8.6750 -0.5144
6 4 15 5.7674 0.3550
6 4 16 1.8742 -0.6947
6 4 17 1.1742 -0.1665
6 4 18 1.5834 -0.6274
6 4 19 2.4603 -0.2015
6 4 20 -3.6722 -0.5837
6 5 6 -1.4193 1.9367
6 5 7 -3.4607 1.5227
6 5 8 2.2305 -0.7619
6 5 9 3.0426 0.5383
6 5 10 -2.1384 -1.6761
6 5 11 -1.3134 0.6334
6 5 12 -2.8501 0.0658
6 5 13 3.3591 1.0842
6 5 14 -7.4312 -0.8314
6 5 15 0.7572 1.3412
6 5 16 -3.7182 -0.1168
6 5 17 -3.0979 0.9293
6 5 18 0.4405 0.1653
6 5 19 2.1209 0.4210
6 5 20 -2.1057 0.2776
6 6 6 3.5818 -0.4421
6 6 7 -2.2743 -0.5824
6 6 8 2.7062 -0.1917
6 6 9 1.3283 1.6798
6 6 10 -1.2120 -1.1021
6 6 11 2.2875 0.2674
6 6 12 0.6181 -0.7792
6 6 13 4.6996 0.4835
6 6 14 0.5629 -1.2682
6 6 15 5.7659 0.3233
6 6 16 1.4798 -1.3742
6 6 17 -1.3782 0.0862
6 6 18 -0.5913 -0.1379
6 6 19 -0.9803 -0.2675
6 7 6 0.7876 0.1498
6 7 7 -5.0331 -0.1715
6 7 8 -0.5401 -0.3751
6 7 9 -2.9438 0.4433
6 7 10 -1.9264 0.0491
6 7 11 1.0993 0.7092
6 7 12 -3.6994 -0.1381
6 7 13 -2.5178 0.5142
6 7 14 -4.4772 0.1382
6 7 15 -0.7480 1.2338
6 7 16 1.0303 -0.1760
6 7 17 1.0077 0.2797
6 7 18 3.7895 0.0277
6 7 19 1.1028 -0.2022
6 8 6 0.0905 -0.0061
6 8 7 2.6977 0.1699
6 8 8 6.1760 0.0549
6 8 9 0.8725 -0.9917
6 8 10 0.9188 -0.1269
6 8 11 2.5755 -0.3981
6 8 12 0.4220 -0.1677
6 8 13 4.4064 -0.4712
6 8 14 0.8140 -0.4971
6 8 15 -1.8165 -0.2829
6 8 16 -1.9645 -0.1576
6 8 17 -4.8650 0.2968
6 8 18 -0.8909 0.1818
6 9 6 0.2217 0.0104
6 9 7 -2.7127 -0.0829
6 9 8 -4.4750 1.0294
6 9 9 -3.7511 -0.4484
6 9 10 0.6166 0.8946
6 9 11 -0.4869 -0.2821
6 9 12 -4.6180 0.6677
6 9 13 0.8159 0.2274
6 9 14 1.2222 0.4279
6 9 15 3.1285 -0.4933
6 9 16 5.2605 -0.0836
6 9 17 0.4661 -0.1060
6 9 18 4.0150 -0.2944
6 10 6 1.9173 0.0253
6 10 7 5.5276 -0.9067
6 10 8 1.6000 0.6870
6 10 9 0.7899 -0.5061
6 10 10 2.6289 0.8463
6 10 11 1.9232 -0.6758
6 10 12 -0.4913 -0.0994
6 10 13 0.8223 -0.2700
6 10 14 -4.6842 0.6812
6 10 15 -4.4519 0.0319
6 10 16 -1.2421 0.5013
6 10 17 -3.6396 0.2398
6 11 6 -2.0703 0.1835
6 11 7 -1.0619 -0.4514
6 11 8 -3.6846 0.1674
6 11 9 -2.0373 -1.1662
6 11 10 -0.8165 -0.0666
6 11 11 -2.5399 -0.1742
6 11 12 -1.6404 0.2273
6 11 13 4.0428 -0.5082
6 11 14 2.7681 -0.3234
6 11 15 3.0749 -0.5704
6 11 16 1.6771 0.0147
6 12 6 0.8920 -0.2136
6 12 7 3.3643 0.3753
6 12 8 1.6832 0.7232
6 12 9 1.6194 0.5440
6 12 10 4.7031 0.3719
6 12 11 2.2150 0.2788
6 12 12 -0.4722 0.2935
6 12 13 -1.0375 0.1641
6 12 14 -3.5546 0.3122
6 12 15 -0.1301 0.1296
6 13 6 -2.9986 -0.7165
6 13 7 -0.9915 0.3604
6 13 8 -1.6032 -0.7412
6 13 9 -5.4583 -0.1043
6 13 10 -2.5145 -0.6286
6 13 11 -3.7834 0.0605
6 13 12 -0.9284 -0.1162
6 13 13 1.7229 -0.0185
6 13 14 -0.3962 0.1386
6 14 6 -1.4890 -0.3130
6 14 7 1.6643 0.5994
6 14 8 3.7843 -0.6313
6 14 9 1.8786 0.6302
6 14 10 5.8795 -0.3686
6 14 11 2.1185 0.1867
6 14 12 1.8458 -0.5949
6 14 13 0.9325 -0.5290
6 15 6 -0.5236 0.8429
6 15 7 -0.5301 0.2439
6 15 8 -1.1693 -0.6366
6 15 9 -3.6614 0.5796
6 15 10 -2.2343 -0.0820
6 15 11 -3.9493 1.0205
6 16 6 -0.4412 0.7364
6 16 7 -0.4369 -0.3620
6 16 8 0.0798 0.2485
6 16 9 1.6562 0.4587
6 17 6 2.0706 1.7163
6 17 7 0.3761 -1.7702
7 0 7 8.5077 -0.4168
7 0 9 0.2010 -6.0310
7 0 11 3.2497 -7.5237
7 0 13 4.8149 -4.5829
7 0 15 -0.6316 -3.4468
7 0 17 -0.7852 -1.6361
7 0 19 -4.1345 -2.2937
7 1 7 3.6880 2.6969
7 1 8 -5.2171 2.2142
7 1 9 0.6318 5.0039
7 1 10 -0.8151 6.2192
7 1 11 -4.4625 1.6407
7 1 12 -5.0492 4.7994
7 1 13 0.2670 2.0768
7 1 14 -1.9085 3.3589
7 1 15 -0.4088 1.2152
7 1 16 0.2156 1.7914
7 1 17 -0.6183 0.9528
7 1 18 2.0624 1.4113
7 1 19 0.0224 0.8389
7 2 7 0.6451 -0.5026
7 2 8 -5.9512 -3.4600
7 2 9 5.0748 -2.6328
7 2 10 5.2385 -2.2586
7 2 11 2.3153 -3.1973
7 2 12 2.7878 -0.9714
7 2 13 3.7025 -2.7228
7 2 14 0.2205 -1.5158
7 2 15 1.3307 -1.1591
7 2 16 0.8147 -0.2650
7 2 17 0.0764 -0.4536
7 2 18 0.7567 -0.8951
7 2 19 -2.0012 -0.9516
7 3 7 0.5795 0.4583
7 3 8 -2.0250 1.6025
7 3 9 -0.7143 1.4057
7 3 10 -4.9601 -0.0461
7 3 11 -3.4214 0.6443
7 3 12 -1.7799 1.5391
7 3 13 -1.8389 1.0999
7 3 14 -3.1781 0.3591
7 3 15 -0.9402 0.2329
7 3 16 -0.4352 -0.4056
7 3 17 -0.5931 0.3671
7 3 18 -0.3365 -0.5342
7 3 19 -0.1548 0.6212
7 4 7 -5.4913 -0.2885
7 4 8 4.3267 0.8446
7 4 9 3.0714 0.6009
7 4 10 -0.1579 0.1137
7 4 11 2.3981 0.6596
7 4 12 1.0752 -0.8079
7 4 13 3.0762 0.0143
7 4 14 2.3627 -0.0325
7 4 15 -0.1413 0.9319
7 4 16 0.6440 -0.1742
7 4 17 -0.0457 1.2518
7 4 18 -0.1302 -0.2995
7 4 19 0.4040 1.2460
7 5 7 -6.6936 -0.2377
7 5 8 3.8318 -0.2788
7 5 9 -3.1626 -1.8058
7 5 10 0.1004 -0.9288
7 5 11 3.0953 0.3891
7 5 12 -3.9231 -0.8058
7 5 13 -1.3590 -0.3434
7 5 14 -0.0448 -0.7583
7 5 15 -1.9730 -0.0179
7 5 16 3.7883 -1.0999
7 5 17 -0.1385 -0.0150
7 5 18 -0.2937 -2.0346
7 5 19 1.0990 0.3246
7 6 7 0.5384 0.7503
7 6 8 7.0562 1.2383
7 6 9 -6.9325 0.0511
7 6 10 -1.8178 0.5960
7 6 11 1.5157 0.6609
7 6 12 -1.9415 0.7092
7 6 13 2.8542 0.7505
7 6 14 0.2796 0.4656
7 6 15 -5.8675 0.3873
7 6 16 2.6952 0.2457
7 6 17 -4.1874 1.6166
7 6 18 -1.9823 0.1826
7 7 7 -2.9941 -0.3069
7 7 8 4.4295 0.0339
7 7 9 -1.2276 -0.1155
7 7 10 5.1572 0.1929
7 7 11 0.6307 -1.0938
7 7 12 -3.2582 -0.5119
7 7 13 3.0921 -0.9050
7 7 14 2.5339 0.0596
7 7 15 -1.4663 -0.4095
7 7 16 8.1474 -0.7435
7 7 17 -1.5922 -0.7039
7 7 18 1.9687 -1.2884
7 8 7 2.2067 -0.4344
7 8 8 -0.1101 -0.5759
7 8 9 -5.8538 -0.3635
7 8 10 1.7587 0.3275
7 8 11 -0.3585 0.0359
7 8 12 -0.6143 1.0617
7 8 13 0.5247 -0.3635
7 8 14 -3.6420 0.3848
7 8 15 -5.5692 0.2614
7 8 16 3.3577 0.7894
7 8 17 -5.7373 0.5193
7 9 7 0.6810 0.2900
7 9 8 2.2315 0.5519
7 9 9 -0.6236 0.4057
7 9 10 1.2615 -0.0422
7 9 11 -4.1748 -0.1683
7 9 12 -0.3695 0.5996
7 9 13 3.3667 -0.1593
7 9 14 1.4611 0.0059
7 9 15 0.8624 -0.2856
7 9 16 4.2351 -0.1476
7 10 7 -2.4107 -0.6028
7 10 8 0.1304 -0.0839
7 10 9 -0.2511 -0.0233
7 10 10 5.2909 -0.5895
7 10 11 1.4664 -0.4480
7 10 12 1.8999 -0.7289
7 10 13 -0.3202 -0.1082
7 10 14 -3.2842 -0.2527
7 10 15 -0.3853 -0.0639
7 10 16 1.4591 -0.1600
7 11 7 -1.7904 -0.1059
7 11 8 1.5129 0.1098
7 11 9 -4.3724 0.1805
7 11 10 -2.7552 0.4279
7 11 11 -5.7037 1.3408
7 11 12 -1.3866 -0.1905
7 11 13 0.6968 0.8721
7 11 14 -0.4243 0.0870
7 11 15 0.7345 0.7790
7 12 7 -3.9032 -0.0516
7 12 8 3.1237 0.1410
7 12 9 1.4812 -0.4255
7 12 10 6.3906 -0.6648
7 12 11 3.6232 0.2383
7 12 12 2.4951 -1.1523
7 12 13 0.8012 0.5138
7 12 14 0.1562 -0.9796
7 13 7 -2.6923 -0.0338
7 13 8 1.1915 0.2024
7 13 9 -4.1911 -0.0448
7 13 10 -3.5837 -0.0953
7 13 11 -3.7670 0.3149
7 13 12 -2.8350 -0.8712
7 13 13 -1.5192 0.9210
7 14 7 -2.1507 0.2763
7 14 8 1.2719 0.0620
7 14 9 1.1286 0.2582
7 14 10 2.8671 0.5925
7 14 11 4.2316 0.6065
7 15 7 0.9504 0.1574
7 15 8 0.9766 -0.5945
7 15 9 -0.8875 -0.6364
7 16 7 0.1390 1.0646
8 0 8 -5.5100 2.5787
8 0 10 -0.7571 -1.6915
8 0 12 2.2059 1.3255
8 0 14 4.4853 -0.2017
8 0 16 3.0960 0.3627
8 0 18 1.2417 0.2870
8 1 8 2.7587 -1.6156
8 1 9 3.8985 0.6858
8 1 10 -2.8700 -3.2048
8 1 11 -0.7599 0.2409
8 1 12 1.3566 -1.7130
8 1 13 -2.8154 -0.4837
8 1 14 -0.1085 -1.0732
8 1 15 -4.0859 0.1580
8 1 16 -1.1239 -1.2314
8 1 17 -0.8474 -0.1496
8 1 18 -2.1227 0.0194
8 2 8 0.2031 1.1520
8 2 9 2.2466 1.4250
8 2 10 -2.3734 -0.5177
8 2 11 -0.2337 2.7958
8 2 12 0.4479 -0.2697
8 2 13 -1.0230 0.4029
8 2 14 3.6620 -0.1951
8 2 15 0.1904 1.0745
8 2 16 0.0038 -0.4148
8 2 17 4.2496 0.3706
8 2 18 1.4785 -0.7595
8 3 8 2.6809 0.1426
8 3 9 0.0260 -0.8003
8 3 10 0.5256 -1.7449
8 3 11 3.1334 0.4697
8 3 12 1.2721 -0.5858
8 3 13 -3.2242 0.5398
8 3 14 1.2474 -0.2623
8 3 15 0.3195 0.4940
8 3 16 -2.7818 -0.4909
8 3 17 0.3145 1.2956
8 3 18 -5.2767 -0.1125
8 4 8 0.1859 0.1291
8 4 9 -2.8034 0.1659
8 4 10 -2.9731 0.9209
8 4 11 -2.7106 -0.0216
8 4 12 1.7030 -0.5138
8 4 13 -1.2259 -0.1642
8 4 14 1.3387 -0.2366
8 4 15 -0.3576 0.0132
8 4 16 -1.6486 -1.1861
8 4 17 6.7659 0.2404
8 4 18 1.1299 -0.8794
8 5 8 0.3558 0.5143
8 5 9 3.9179 -0.8327
8 5 10 4.5696 0.8389
8 5 11 -1.2695 -0.6339
8 5 12 1.7438 0.6820
8 5 13 -3.0480 -0.1937
8 5 14 1.9104 0.4311
8 5 15 0.4430 0.5476
8 5 16 -5.3338 0.0755
8 5 17 -0.0617 0.6041
8 6 8 -5.7834 -0.1330
8 6 9 -2.3732 -0.7927
8 6 10 -0.3998 0.7760
8 6 11 -2.1594 -0.9305
8 6 12 3.6493 0.9051
8 6 13 -2.9763 -0.7859
8 6 14 1.9015 0.0288
8 6 15 3.7019 -0.4285
8 6 16 0.4667 0.0441
8 6 17 5.2093 0.0309
8 7 8 1.6316 0.6021
8 7 9 2.7913 0.0054
8 7 10 -0.6417 0.4083
8 7 11 -2.3601 -0.8075
8 7 12 3.3119 0.6226
8 7 13 -2.0315 -0.2192
8 7 14 -1.4657 0.7041
8 7 15 -2.3943 -0.3878
8 7 16 -6.1992 0.0272
8 8 8 -0.8788 -0.4616
8 8 9 1.9397 0.0379
8 8 10 0.9360 0.2047
8 8 11 -0.5950 0.1953
8 8 12 -0.3385 -0.1523
8 8 13 -1.1417 -0.5347
8 8 14 2.1390 0.0379
8 8 15 5.6853 0.0790
8 8 16 -0.0638 0.9870
8 9 8 -0.1654 -0.6744
8 9 9 -1.8549 0.0647
8 9 10 -2.6831 -0.6127
8 9 11 1.6175 0.3030
8 9 12 2.1329 -0.1778
8 9 13 1.1601 0.4948
8 9 14 -3.4151 -0.2893
8 9 15 -0.1400 -0.2961
8 10 8 2.9690 -0.0125
8 10 9 3.6085 0.7974
8 10 10 -1.0890 -0.0888
8 10 11 -0.4724 0.3917
8 10 12 -2.8521 0.0110
8 10 13 0.0887 0.6893
8 10 14 -2.1486 -0.3551
8 11 8 -2.4861 -0.6495
8 11 9 0.5003 0.2354
8 11 10 -2.6411 -0.1370
8 11 11 2.6598 -1.0375
8 11 12 1.6518 -0.6162
8 11 13 3.0457 -0.4972
8 12 8 -0.3612 -0.0038
8 12 9 3.0942 -0.2148
8 12 10 -2.4943 0.7561
8 12 11 0.4486 0.0247
8 12 12 -2.3107 2.1924
8 13 8 -1.3436 1.2113
8 13 9 1.8782 -0.0251
8 13 10 -1.9427 0.4569
8 14 8 -2.1898 0.3002
8 14 9 0.8662 -1.2440
9 0 9 -1.3416 -2.0233
9 0 11 -1.4601 -0.4240
9 0 13 -5.6226 -2.1242
9 0 15 0.9229 -1.3098
9 0 17 -2.1979 -0.1593
9 1 9 -3.1052 1.5493
9 1 10 -0.2570 1.3304
9 1 11 1.6083 0.0989
9 1 12 4.6577 0.5741
9 1 13 3.6966 -0.2960
9 1 14 1.6401 1.9859
9 1 15 6.3148 1.1572
9 1 16 -0.1309 0.2119
9 1 17 2.5517 0.0547
9 2 9 -2.1825 -0.6143
9 2 10 1.0198 -0.3352
9 2 11 -1.7517 -0.5917
9 2 12 -3.6056 0.7077
9 2 13 -2.3617 -0.9664
9 2 14 -9.2940 -0.2979
9 2 15 0.2827 -0.4100
9 2 16 -8.1662 -0.9694
9 3 9 -1.6238 1.0036
9 3 10 2.5103 0.7319
9 3 11 -0.1698 -0.6124
9 3 12 -0.3277 0.5287
9 3 13 6.9314 -0.5807
9 3 14 0.4530 0.1701
9 3 15 11.2604 0.7435
9 3 16 -2.4433 -0.7124
9 4 9 -1.6966 -0.2874
9 4 10 1.5693 -0.0920
9 4 11 1.1705 -0.7978
9 4 12 -0.8016 0.5396
9 4 13 1.3429 0.0761
9 4 14 -9.3026 0.1536
9 4 15 2.1813 0.4179
9 4 16 -4.5783 -0.2725
9 5 9 1.8677 -0.3039
9 5 10 -1.7687 0.7086
9 5 11 -3.0423 0.3454
9 5 12 -2.5518 0.0610
9 5 13 3.7737 -0.1858
9 5 14 -2.7637 -0.1909
9 5 15 3.5118 -0.3778
9 5 16 -4.4433 -0.6005
9 6 9 3.7066 -0.3716
9 6 10 1.6236 -0.3438
9 6 11 2.6728 -0.2410
9 6 12 0.2140 -0.7261
9 6 13 2.8156 0.2879
9 6 14 -0.0763 0.4886
9 6 15 5.0768 0.0009
9 7 9 0.8643 -0.2740
9 7 10 -4.6274 0.0227
9 7 11 0.7232 0.8192
9 7 12 -1.1114 -0.2120
9 7 13 -2.5785 0.2781
9 7 14 -4.8876 -0.1391
9 8 9 7.0742 0.6437
9 8 10 -3.1053 -0.0855
9 8 11 1.1336 0.2751
9 8 12 0.5499 -0.3366
9 8 13 2.5168 0.1836
9 8 14 5.2584 0.6062
9 9 9 1.1941 -0.2531
9 9 10 -3.3041 -0.6910
9 9 11 4.1810 -0.4606
9 9 12 -1.3552 -0.2035
9 9 13 -4.6573 -0.6588
9 10 9 3.3964 -0.1218
9 10 10 -4.0297 0.9283
9 10 11 2.2825 0.7453
9 10 12 -0.4480 1.3877
9 11 9 -0.6717 -0.9222
9 11 10 -1.6681 -0.1753
9 11 11 2.7487 -1.8233
9 12 9 1.3605 -1.6799
10 0 10 3.0852 8.7321
10 0 12 -2.3102 6.8572
10 0 14 -0.4269 4.4649
10 1 10 -0.9738 -0.3001
10 1 11 0.4139 -7.7011
10 1 12 0.4286 0.0341
10 1 13 1.8877 -3.8185
10 1 14 1.1127 1.7006
10 1 15 -1.4563 -1.9710
10 2 10 1.4433 4.0821
10 2 11 1.9136 0.0829
10 2 12 -1.7087 3.8849
10 2 13 -2.6859 -0.5624
10 2 14 0.1506 0.5932
10 3 10 -2.3302 0.2111
10 3 11 0.8427 -2.4955
10 3 12 0.3963 -0.0715
10 3 13 0.5541 0.0587
10 3 14 2.6783 1.0745
10 4 10 -0.0729 -0.4565
10 4 11 2.3734 -0.2946
10 4 12 -1.0772 0.1661
10 4 13 -2.7455 -0.0506
10 4 14 1.6723 -2.8749
10 5 10 -1.0270 0.4122
10 5 11 1.4023 0.4572
10 5 12 0.2958 0.1546
10 5 13 -1.3841 1.8467
10 6 10 -2.4276 -1.1609
10 6 11 -0.0982 -0.3805
10 6 12 0.5988 -0.6733
10 6 13 0.4315 0.6384
10 7 10 2.9580 0.0033
10 7 11 1.5336 0.5528
10 7 12 -2.0456 -0.2587
10 8 10 -2.8112 0.4380
10 8 11 0.6372 0.2788
10 9 10 3.6241 0.0534
11 0 11 1.9605 -4.5083
11 1 11 0.7039 2.2553
11 1 12 -2.3069 5.0706
11 2 11 0.5591 -1.8815
11 2 12 -2.9654 -2.5383
11 3 11 0.8081 1.2229
11 3 12 -0.6952 0.8364
11 4 11 -1.0356 0.9464
11 5 11 -0.0513 -0.1636
0 0 0 0.0 0.0
;
_shelx_fab_checksum                83682
_olex2_submission_special_instructions  'No special instructions were received'
_oxdiff_exptl_absorpt_empirical_details
;
Empirical correction (ABSPACK) includes:
- Absorption correction using spherical harmonics
- Frame scaling
- Detector area scaling
- B-factor correction
;
_vrf_PLAT181_Eu-U6
;
PROBLEM: All Angles Exactly 90 Degrees in Monoclinic Cell Please Check
RESPONSE: Ambiguity between monoclinic and orthorhombic, ultimately a monoclinic space cell best fit the data
;
_vrf_PLAT182_Eu-U6
;
PROBLEM: All Angles with zero s.u. in Monoclinic Cell ... Please Check
RESPONSE: ...
;
_vrf_PLAT241_Eu-U6
;
PROBLEM: High MainMol Ueq as Compared to Neighbors of O11 Check
RESPONSE: Solvent disorder
;
_vrf_PLAT971_Eu-U6
;
PROBLEM: Check Calcd Resid. Dens. 1.18Ang From U1 3.93 eA-3
RESPONSE: high residual q-peaks common near heavy atoms
;
_vrf_PLAT972_Eu-U6
;
PROBLEM: Check Calcd Resid. Dens. 0.95Ang From U1 -3.08 eA-3
RESPONSE: high residual q-peaks common near heavy atoms
;
# start Validation Reply Form
_vrf_SYMMS02_Eu-U6
;
PROBLEM: All angles should not be 90 for a monoclinic cell
RESPONSE: Ambiguity between monoclinic and orthorhombic, ultimately a monoclinic space cell best fit the data
;
