data_na-cmw10
_audit_creation_date               2025-01-15
_audit_creation_method
;
Olex2 1.5
(compiled 2024.02.16 svn.r378c4104 for OlexSys, GUI svn.r6928)
;
_shelx_SHELXL_version_number       '2019/3'
_audit_contact_author_address      ?
_audit_contact_author_email        ?
_audit_contact_author_name         ''
_audit_contact_author_phone        ?
_publ_contact_author_id_orcid      ?
_publ_section_references
;
Dolomanov, O.V., Bourhis, L.J., Gildea, R.J, Howard, J.A.K. & Puschmann, H.
 (2009), J. Appl. Cryst. 42, 339-341.

Sheldrick, G.M. (2015). Acta Cryst. A71, 3-8.

Sheldrick, G.M. (2015). Acta Cryst. C71, 3-8.
;
_chemical_name_common              ?
_chemical_name_systematic          ?
_chemical_formula_moiety           'Cm O36 W10, Cl, 10(Na), 30(O)'
_chemical_formula_sum              'Cl Cm Na10 O66 W10'
_chemical_formula_weight           3403.85
_chemical_absolute_configuration   ?
_chemical_melting_point            ?
loop_
  _atom_type_symbol
  _atom_type_description
  _atom_type_scat_dispersion_real
  _atom_type_scat_dispersion_imag
  _atom_type_scat_source
 'Cl' 'Cl' 0.1484 0.1585 'International Tables Vol C Tables 4.2.6.8 and 6.1.1.4'
 'Cm' 'Cm' -7.3248 4.8980
 'International Tables Vol C Tables 4.2.6.8 and 6.1.1.4'
 'Na' 'Na' 0.0362 0.0249 'International Tables Vol C Tables 4.2.6.8 and 6.1.1.4'
 'O' 'O' 0.0106 0.0060 'International Tables Vol C Tables 4.2.6.8 and 6.1.1.4'
 'W' 'W' -0.8490 6.8722 'International Tables Vol C Tables 4.2.6.8 and 6.1.1.4'

_shelx_space_group_comment
;
The symmetry employed for this shelxl refinement is uniquely defined
by the following loop, which should always be used as a source of
symmetry information in preference to the above space-group names.
They are only intended as comments.
;
_space_group_crystal_system        'orthorhombic'
_space_group_IT_number             44
_space_group_name_H-M_alt          'I m m 2'
_space_group_name_Hall             'I 2 -2'
loop_
  _space_group_symop_operation_xyz
 'x, y, z'
 '-x, -y, z'
 'x, -y, z'
 '-x, y, z'
 'x+1/2, y+1/2, z+1/2'
 '-x+1/2, -y+1/2, z+1/2'
 'x+1/2, -y+1/2, z+1/2'
 '-x+1/2, y+1/2, z+1/2'

# start Validation Reply Form
_vrf_PLAT972_na-cmw10
;
PROBLEM: Check Calcd Resid. Dens. 0.43Ang From Cm1 -4.86 eA-3
RESPONSE: high residual Q-peaks common near heavy atoms
;
_vrf_PLAT306_na-cmw10
;
PROBLEM: Isolated Oxygen Atom (H-atoms Missing ?) ....... O2 Check
RESPONSE: solvent water
;
_vrf_PLAT987_na-cmw10
;
PROBLEM: The Flack x is >> 0 - Do a BASF/TWIN Refinement Please Check
RESPONSE: No additional twin component was found
;
# end Validation Reply Form

_cell_length_a                     11.5075(5)
_cell_length_b                     15.2594(6)
_cell_length_c                     17.6418(7)
_cell_angle_alpha                  90
_cell_angle_beta                   90
_cell_angle_gamma                  90
_cell_volume                       3097.9(2)
_cell_formula_units_Z              2
_cell_measurement_reflns_used      14958
_cell_measurement_temperature      293(2)
_cell_measurement_theta_max        31.8210
_cell_measurement_theta_min        4.1480
_shelx_estimated_absorpt_T_max     0.585
_shelx_estimated_absorpt_T_min     0.153
_exptl_absorpt_coefficient_mu      20.019
_exptl_absorpt_correction_T_max    1.00000
_exptl_absorpt_correction_T_min    0.35703
_exptl_absorpt_correction_type     multi-scan
_exptl_absorpt_process_details
;
CrysAlisPro 1.171.41.81a (Rigaku Oxford Diffraction, 2020)
Empirical absorption correction using spherical harmonics,
implemented in SCALE3 ABSPACK scaling algorithm.
;
_exptl_absorpt_special_details     ?
_exptl_crystal_colour              'clear colourless'
_exptl_crystal_colour_lustre       clear
_exptl_crystal_colour_modifier     .
_exptl_crystal_colour_primary      colourless
_exptl_crystal_density_diffrn      3.649
_exptl_crystal_density_meas        ?
_exptl_crystal_density_method      ?
_exptl_crystal_description         block
_exptl_crystal_F_000               2982
_exptl_crystal_size_max            0.15
_exptl_crystal_size_mid            0.03
_exptl_crystal_size_min            0.03
_exptl_transmission_factor_max     ?
_exptl_transmission_factor_min     ?
_diffrn_reflns_av_R_equivalents    0.0724
_diffrn_reflns_av_unetI/netI       0.0420
_diffrn_reflns_Laue_measured_fraction_full  0.996
_diffrn_reflns_Laue_measured_fraction_max  0.886
_diffrn_reflns_limit_h_max         17
_diffrn_reflns_limit_h_min         -15
_diffrn_reflns_limit_k_max         22
_diffrn_reflns_limit_k_min         -21
_diffrn_reflns_limit_l_max         25
_diffrn_reflns_limit_l_min         -21
_diffrn_reflns_number              21118
_diffrn_reflns_point_group_measured_fraction_full  0.956
_diffrn_reflns_point_group_measured_fraction_max  0.803
_diffrn_reflns_theta_full          25.242
_diffrn_reflns_theta_max           31.979
_diffrn_reflns_theta_min           3.406
_diffrn_ambient_temperature        293(2)
_diffrn_detector_area_resol_mean   5.8140
_diffrn_detector_type              'Pilatus 300K'
_diffrn_measured_fraction_theta_full  0.996
_diffrn_measured_fraction_theta_max  0.886
_diffrn_measurement_details
;
List of Runs (angles in degrees, time in seconds):

  # Type    Start    End  Width  t~exp~   \w     \q     \k     \f   Frames
--------------------------------------------------------------------------
  1  \w    -21.00  33.00   0.25    1.08    --   -4.85  57.00   0.00  216
  2  \w     27.00  68.00   0.25    1.08    --    3.37  77.00 -90.00  164
  3  \w    -21.00   4.00   0.25    1.08    --    3.37  77.00 -90.00  100
  4  \w    -14.00  76.00   0.25    1.08    --    3.37  57.00-120.00  360
  5  \w    -34.00  21.00   0.25    1.08    --    3.37 -23.00-127.00  220
  6  \w    -61.00 -36.00   0.25    1.08    --    3.37 -23.00-127.00  100
  7  \w    -12.00  40.00   0.25    1.08    --    3.37 -99.00 -90.00  208
  8  \w    -10.00  38.00   0.25    1.08    --    3.37 -99.00  30.00  192
  9  \w     13.00  38.00   0.25    1.08    --    3.37-103.00 107.00  100
;
_diffrn_measurement_device         'four-circle diffractometer'
_diffrn_measurement_device_type    'ROD, Synergy Custom DW system, Pilatus 300K'
_diffrn_measurement_method         '\w scans'
_diffrn_radiation_type             MoK\a
_diffrn_radiation_wavelength       0.71073
_diffrn_source                     ?
_reflns_Friedel_coverage           0.763
_reflns_Friedel_fraction_full      0.912
_reflns_Friedel_fraction_max       0.716
_reflns_number_gt                  4515
_reflns_number_total               4660
_reflns_special_details
;
 Reflections were merged by SHELXL according to the crystal
 class for the calculation of statistics and refinement.
 
 _reflns_Friedel_fraction is defined as the number of unique
 Friedel pairs measured divided by the number that would be
 possible theoretically, ignoring centric projections and
 systematic absences.
;
_reflns_threshold_expression       'I > 2\s(I)'
_computing_cell_refinement         'CrysAlisPro 1.171.41.81a (Rigaku OD, 2020)'
_computing_data_collection         'CrysAlisPro 1.171.41.81a (Rigaku OD, 2020)'
_computing_data_reduction          'CrysAlisPro 1.171.41.81a (Rigaku OD, 2020)'
_computing_molecular_graphics      'Olex2 1.5 (Dolomanov et al., 2009)'
_computing_publication_material    'Olex2 1.5 (Dolomanov et al., 2009)'
_computing_structure_refinement    'SHELXL 2019/3 (Sheldrick, 2015)'
_computing_structure_solution      'SHELXT  (Sheldrick, 2015)'
_refine_diff_density_max           1.436
_refine_diff_density_min           -5.067
_refine_diff_density_rms           0.367
_refine_ls_abs_structure_details
;
 Flack x determined using 1880 quotients [(I+)-(I-)]/[(I+)+(I-)]
 (Parsons, Flack and Wagner, Acta Cryst. B69 (2013) 249-259).
;
_refine_ls_abs_structure_Flack     0.054(15)
_refine_ls_extinction_coef         .
_refine_ls_extinction_method       none
_refine_ls_goodness_of_fit_ref     1.045
_refine_ls_hydrogen_treatment      undef
_refine_ls_matrix_type             full
_refine_ls_number_parameters       251
_refine_ls_number_reflns           4660
_refine_ls_number_restraints       1
_refine_ls_R_factor_all            0.0388
_refine_ls_R_factor_gt             0.0377
_refine_ls_restrained_S_all        1.044
_refine_ls_shift/su_max            0.001
_refine_ls_shift/su_mean           0.000
_refine_ls_structure_factor_coef   Fsqd
_refine_ls_weighting_details      
 'w=1/[\s^2^(Fo^2^)+(0.0784P)^2^] where P=(Fo^2^+2Fc^2^)/3'
_refine_ls_weighting_scheme        calc
_refine_ls_wR_factor_gt            0.1010
_refine_ls_wR_factor_ref           0.1015
_refine_special_details            ?
_olex2_refinement_description
;
1. Others
 Fixed Sof: O3(0.5) Na3(0.75) O25(0.25) O13(0.375) O27(0.375)
;
_atom_sites_solution_hydrogens     .
_atom_sites_solution_primary       dual
_atom_sites_solution_secondary     ?
loop_
  _atom_site_label
  _atom_site_type_symbol
  _atom_site_fract_x
  _atom_site_fract_y
  _atom_site_fract_z
  _atom_site_U_iso_or_equiv
  _atom_site_adp_type
  _atom_site_occupancy
  _atom_site_site_symmetry_order
  _atom_site_calc_flag
  _atom_site_refinement_flags_posn
  _atom_site_refinement_flags_adp
  _atom_site_refinement_flags_occupancy
  _atom_site_disorder_assembly
  _atom_site_disorder_group
 W1 W 0.70211(5) 0.500000 0.52543(4) 0.01964(14) Uani 1 2 d S T P . .
 W4 W 0.500000 0.34885(4) 0.52777(4) 0.01954(14) Uani 1 2 d S T P . .
 W5 W 0.500000 0.500000 0.66258(5) 0.02063(19) Uani 1 4 d S T P . .
 Cm1 Cm 0.500000 0.500000 0.35229(6) 0.02971(19) Uani 1 4 d S T P . .
 W3 W 0.64279(5) 0.39285(3) 0.17805(4) 0.02943(14) Uani 1 1 d . . . . .
 W2 W 0.500000 0.500000 0.04186(6) 0.0320(2) Uani 1 4 d S T P . .
 O1 O 0.6624(12) 0.500000 0.6376(8) 0.026(2) Uani 1 2 d S T P . .
 O4 O 0.500000 0.3788(9) 0.6385(8) 0.029(3) Uani 1 2 d S T P . .
 Cl1 Cl 0.500000 0.000000 0.3317(5) 0.0354(14) Uani 1 4 d S T P . .
 O6 O 0.6157(11) 0.4141(8) 0.0645(6) 0.037(2) Uani 1 1 d . . . . .
 Na1 Na 0.500000 0.000000 0.4927(8) 0.037(3) Uani 1 4 d S T P . .
 O8 O 0.7301(13) 0.500000 0.1694(9) 0.032(3) Uani 1 2 d S T P . .
 Na4 Na 0.6672(6) 0.1269(5) 0.3482(5) 0.0417(13) Uani 1 1 d . . . . .
 O10 O 0.6310(10) 0.4026(7) 0.2784(7) 0.030(2) Uani 1 1 d . . . . .
 O12 O 0.6836(13) 0.500000 0.4256(9) 0.029(3) Uani 1 2 d S T P . .
 O14 O 0.500000 0.3650(10) 0.4272(8) 0.026(3) Uani 1 2 d S T P . .
 O16 O 0.6642(8) 0.3780(6) 0.5335(6) 0.0257(17) Uani 1 1 d . . . . .
 Na2 Na 1.000000 0.3843(5) 0.5168(6) 0.038(2) Uani 1 2 d S T P . .
 O18 O 0.500000 0.3262(9) 0.1718(10) 0.037(3) Uani 1 2 d S T P . .
 O20 O 0.500000 0.500000 0.5336(9) 0.015(3) Uiso 1 4 d S . P . .
 O22 O 0.500000 0.2357(8) 0.5420(9) 0.031(3) Uani 1 2 d S T P . .
 O24 O 0.500000 0.500000 0.7610(10) 0.032(4) Uani 1 4 d S T P . .
 O26 O 0.7494(10) 0.3134(7) 0.1657(8) 0.044(3) Uani 1 1 d . . . . .
 O28 O 0.7196(12) 0.1301(9) 0.2170(8) 0.048(3) Uani 1 1 d . . . . .
 O7 O 0.6583(12) 0.1081(7) 0.4871(8) 0.041(3) Uani 1 1 d . . . . .
 O15 O 0.500000 0.2243(10) 0.3239(12) 0.045(4) Uani 1 2 d S T P . .
 O2 O 0.838(3) 0.500000 0.3227(19) 0.090(10) Uani 1 2 d S T P . .
 O17 O 0.8577(9) 0.2726(8) 0.5102(10) 0.048(3) Uani 1 1 d . . . . .
 O9 O 0.7677(15) 0.2669(9) 0.3580(11) 0.064(4) Uani 1 1 d . . . . .
 O19 O 1.000000 0.366(3) 0.6492(16) 0.094(10) Uani 1 2 d S T P . .
 O5 O 0.500000 0.500000 0.1739(14) 0.034(4) Uani 1 4 d S T P . .
 O21 O 0.8494(12) 0.500000 0.5338(10) 0.034(3) Uani 1 2 d S T P . .
 O11 O 0.500000 0.500000 -0.0578(14) 0.054(7) Uani 1 4 d S T P . .
 O23 O 0.7982(12) 0.000000 0.3576(12) 0.039(4) Uani 1 2 d S T P . .
 O3 O 0.964(3) 0.402(3) 0.384(2) 0.084(13) Uani 0.5 1 d . . P . .
 Na3 Na 0.8741(18) 0.2244(16) 0.2324(15) 0.114(7) Uani 0.75 1 d . . P . .
 O25 O 0.474(3) 0.000000 0.636(2) 0.10(2) Uani 0.5 2 d S T P . .
 O13 O 1.000000 0.333(3) 0.197(4) 0.12(2) Uani 0.75 2 d S T P . .
 O27 O 1.000000 0.179(3) 0.333(2) 0.082(11) Uani 0.75 2 d S T P . .

loop_
  _atom_site_aniso_label
  _atom_site_aniso_U_11
  _atom_site_aniso_U_22
  _atom_site_aniso_U_33
  _atom_site_aniso_U_23
  _atom_site_aniso_U_13
  _atom_site_aniso_U_12
 W1 0.0162(2) 0.0174(3) 0.0254(3) 0.000 0.0007(2) 0.000
 W4 0.0213(3) 0.0117(2) 0.0257(3) 0.0002(2) 0.000 0.000
 W5 0.0207(4) 0.0216(4) 0.0197(4) 0.000 0.000 0.000
 Cm1 0.0405(5) 0.0213(4) 0.0274(4) 0.000 0.000 0.000
 W3 0.0407(3) 0.0217(2) 0.0258(3) -0.00338(18) 0.00133(19) 0.00298(18)
 W2 0.0415(6) 0.0344(5) 0.0203(5) 0.000 0.000 0.000
 O1 0.031(6) 0.022(6) 0.024(6) 0.000 -0.009(5) 0.000
 O4 0.028(6) 0.027(7) 0.031(7) 0.011(5) 0.000 0.000
 Cl1 0.038(3) 0.025(3) 0.043(4) 0.000 0.000 0.000
 O6 0.047(6) 0.039(5) 0.024(6) -0.005(4) 0.004(4) 0.007(5)
 Na1 0.034(5) 0.037(6) 0.038(7) 0.000 0.000 0.000
 O8 0.032(6) 0.033(7) 0.031(7) 0.000 0.001(6) 0.000
 Na4 0.040(3) 0.038(3) 0.048(4) 0.002(3) 0.003(3) 0.000(3)
 O10 0.045(6) 0.023(4) 0.021(5) -0.003(4) -0.001(4) 0.005(4)
 O12 0.027(6) 0.031(7) 0.029(7) 0.000 0.008(5) 0.000
 O14 0.025(6) 0.026(6) 0.028(7) -0.008(5) 0.000 0.000
 O16 0.030(4) 0.016(3) 0.032(5) 0.005(4) 0.003(4) 0.005(3)
 Na2 0.028(4) 0.029(4) 0.056(6) 0.003(4) 0.000 0.000
 O18 0.057(9) 0.016(5) 0.039(9) 0.003(6) 0.000 0.000
 O22 0.043(7) 0.014(5) 0.036(7) -0.004(5) 0.000 0.000
 O24 0.041(10) 0.047(12) 0.008(8) 0.000 0.000 0.000
 O26 0.045(6) 0.035(5) 0.051(7) -0.008(5) 0.000(6) 0.008(5)
 O28 0.052(7) 0.048(6) 0.043(7) -0.010(6) 0.008(5) 0.013(5)
 O7 0.051(7) 0.027(5) 0.045(8) -0.005(4) -0.001(5) -0.001(4)
 O15 0.051(9) 0.020(6) 0.063(11) -0.002(7) 0.000 0.000
 O2 0.14(3) 0.058(15) 0.068(17) 0.000 -0.037(18) 0.000
 O17 0.044(6) 0.030(5) 0.069(9) 0.013(6) 0.005(6) 0.000(4)
 O9 0.070(9) 0.044(7) 0.076(10) 0.005(8) -0.015(8) -0.007(6)
 O19 0.042(11) 0.20(3) 0.044(12) -0.009(18) 0.000 0.000
 O5 0.055(12) 0.010(7) 0.037(11) 0.000 0.000 0.000
 O21 0.030(7) 0.028(7) 0.043(8) 0.000 0.000(6) 0.000
 O11 0.052(15) 0.09(2) 0.017(10) 0.000 0.000 0.000
 O23 0.032(7) 0.045(9) 0.041(9) 0.000 0.001(7) 0.000
 O3 0.08(3) 0.11(3) 0.07(2) -0.017(19) 0.012(18) -0.03(2)
 Na3 0.124(15) 0.105(15) 0.114(17) 0.029(13) -0.004(13) 0.006(11)
 O25 0.03(3) 0.22(7) 0.04(2) 0.000 -0.007(12) 0.000
 O13 0.041(15) 0.08(2) 0.25(7) 0.02(4) 0.000 0.000
 O27 0.08(2) 0.10(3) 0.07(2) -0.03(2) 0.000 0.000

_geom_special_details
;
 All esds (except the esd in the dihedral angle between two l.s. planes)
 are estimated using the full covariance matrix.  The cell esds are taken
 into account individually in the estimation of esds in distances, angles
 and torsion angles; correlations between esds in cell parameters are only
 used when they are defined by crystal symmetry.  An approximate (isotropic)
 treatment of cell esds is used for estimating esds involving l.s. planes.
;
loop_
  _geom_bond_atom_site_label_1
  _geom_bond_atom_site_label_2
  _geom_bond_distance
  _geom_bond_site_symmetry_2
  _geom_bond_publ_flag
 W1 O1 2.032(14) . ?
 W1 O12 1.774(16) . ?
 W1 O16 1.918(9) 3_565 ?
 W1 O16 1.918(9) . ?
 W1 O20 2.3303(12) . ?
 W1 O21 1.701(13) . ?
 W4 O4 2.006(15) . ?
 W4 O14 1.791(15) . ?
 W4 O16 1.943(10) 4_655 ?
 W4 O16 1.943(10) . ?
 W4 O20 2.3089(10) . ?
 W4 O22 1.744(12) . ?
 W5 O1 1.920(14) . ?
 W5 O1 1.920(14) 2_665 ?
 W5 O4 1.898(15) 2_665 ?
 W5 O4 1.898(15) . ?
 W5 O20 2.275(16) . ?
 W5 O24 1.737(18) . ?
 Cm1 O10 2.486(11) 2_665 ?
 Cm1 O10 2.486(11) 3_565 ?
 Cm1 O10 2.486(11) . ?
 Cm1 O10 2.486(11) 4_655 ?
 Cm1 O12 2.478(16) . ?
 Cm1 O12 2.478(16) 2_665 ?
 Cm1 O14 2.448(16) . ?
 Cm1 O14 2.448(16) 2_665 ?
 W3 O6 2.054(12) . ?
 W3 O8 1.925(8) . ?
 W3 O10 1.782(12) . ?
 W3 O18 1.936(8) . ?
 W3 O26 1.739(11) . ?
 W3 O5 2.3193(9) . ?
 W2 O6 1.911(13) 3_565 ?
 W2 O6 1.911(13) . ?
 W2 O6 1.911(13) 4_655 ?
 W2 O6 1.911(13) 2_665 ?
 W2 O5 2.33(2) . ?
 W2 O11 1.76(2) . ?
 O3 O3 0.83(7) 4_755 ?
 O25 O25 0.61(7) 2_655 ?

loop_
  _geom_angle_atom_site_label_1
  _geom_angle_atom_site_label_2
  _geom_angle_atom_site_label_3
  _geom_angle
  _geom_angle_site_symmetry_1
  _geom_angle_site_symmetry_3
  _geom_angle_publ_flag
 O1 W1 O20 73.4(6) . . ?
 O12 W1 O1 160.1(6) . . ?
 O12 W1 O16 92.7(3) . 3_565 ?
 O12 W1 O16 92.7(4) . . ?
 O12 W1 O20 86.7(6) . . ?
 O16 W1 O1 82.9(3) . . ?
 O16 W1 O1 82.9(3) 3_565 . ?
 O16 W1 O16 152.3(6) 3_565 . ?
 O16 W1 O20 76.6(3) . . ?
 O16 W1 O20 76.6(3) 3_565 . ?
 O21 W1 O1 98.0(7) . . ?
 O21 W1 O12 101.9(8) . . ?
 O21 W1 O16 102.7(3) . 3_565 ?
 O21 W1 O16 102.7(3) . . ?
 O21 W1 O20 171.4(7) . . ?
 O4 W4 O20 74.3(6) . . ?
 O14 W4 O4 158.9(6) . . ?
 O14 W4 O16 91.2(3) . . ?
 O14 W4 O16 91.2(3) . 4_655 ?
 O14 W4 O20 84.7(7) . . ?
 O16 W4 O4 84.1(3) . . ?
 O16 W4 O4 84.1(3) 4_655 . ?
 O16 W4 O16 152.9(5) . 4_655 ?
 O16 W4 O20 76.7(3) 4_655 . ?
 O16 W4 O20 76.7(3) . . ?
 O22 W4 O4 94.9(6) . . ?
 O22 W4 O14 106.2(7) . . ?
 O22 W4 O16 102.6(3) . 4_655 ?
 O22 W4 O16 102.6(3) . . ?
 O22 W4 O20 169.2(6) . . ?
 O1 W5 O1 153.5(8) 2_665 . ?
 O1 W5 O20 76.8(4) 2_665 . ?
 O1 W5 O20 76.8(4) . . ?
 O4 W5 O1 87.06(14) . . ?
 O4 W5 O1 87.06(14) 2_665 . ?
 O4 W5 O1 87.06(14) 2_665 2_665 ?
 O4 W5 O1 87.06(14) . 2_665 ?
 O4 W5 O4 154.1(9) 2_665 . ?
 O4 W5 O20 77.1(4) . . ?
 O4 W5 O20 77.1(4) 2_665 . ?
 O24 W5 O1 103.2(4) . . ?
 O24 W5 O1 103.2(4) . 2_665 ?
 O24 W5 O4 102.9(4) . 2_665 ?
 O24 W5 O4 102.9(4) . . ?
 O24 W5 O20 180.0 . . ?
 O10 Cm1 O10 74.7(5) 4_655 . ?
 O10 Cm1 O10 73.5(5) 4_655 2_665 ?
 O10 Cm1 O10 116.8(5) . 2_665 ?
 O10 Cm1 O10 116.8(5) 4_655 3_565 ?
 O10 Cm1 O10 74.7(5) 3_565 2_665 ?
 O10 Cm1 O10 73.5(5) . 3_565 ?
 O12 Cm1 O10 142.3(3) . 4_655 ?
 O12 Cm1 O10 142.3(3) 2_665 3_565 ?
 O12 Cm1 O10 75.9(3) 2_665 2_665 ?
 O12 Cm1 O10 75.9(3) 2_665 4_655 ?
 O12 Cm1 O10 142.3(3) . 2_665 ?
 O12 Cm1 O10 75.9(3) . . ?
 O12 Cm1 O10 142.3(3) 2_665 . ?
 O12 Cm1 O10 75.9(3) . 3_565 ?
 O12 Cm1 O12 117.0(7) . 2_665 ?
 O14 Cm1 O10 141.8(3) 2_665 4_655 ?
 O14 Cm1 O10 141.8(3) . 3_565 ?
 O14 Cm1 O10 77.3(3) 2_665 3_565 ?
 O14 Cm1 O10 141.8(3) 2_665 . ?
 O14 Cm1 O10 77.3(3) . 4_655 ?
 O14 Cm1 O10 77.3(3) . . ?
 O14 Cm1 O10 141.8(3) . 2_665 ?
 O14 Cm1 O10 77.3(3) 2_665 2_665 ?
 O14 Cm1 O12 73.6(3) 2_665 . ?
 O14 Cm1 O12 73.6(2) . . ?
 O14 Cm1 O12 73.6(3) . 2_665 ?
 O14 Cm1 O12 73.6(3) 2_665 2_665 ?
 O14 Cm1 O14 114.6(7) . 2_665 ?
 O6 W3 O5 75.5(7) . . ?
 O8 W3 O6 82.4(6) . . ?
 O8 W3 O18 152.2(6) . . ?
 O8 W3 O5 76.6(4) . . ?
 O10 W3 O6 160.9(4) . . ?
 O10 W3 O8 92.8(6) . . ?
 O10 W3 O18 92.0(7) . . ?
 O10 W3 O5 85.4(7) . . ?
 O18 W3 O6 84.2(6) . . ?
 O18 W3 O5 76.6(4) . . ?
 O26 W3 O6 95.4(6) . . ?
 O26 W3 O8 102.4(6) . . ?
 O26 W3 O10 103.7(6) . . ?
 O26 W3 O18 103.0(5) . . ?
 O26 W3 O5 170.9(8) . . ?
 O6 W2 O6 88.4(8) 3_565 2_665 ?
 O6 W2 O6 155.9(7) 2_665 . ?
 O6 W2 O6 88.4(7) 4_655 . ?
 O6 W2 O6 86.6(7) 4_655 2_665 ?
 O6 W2 O6 155.9(7) 3_565 4_655 ?
 O6 W2 O6 86.7(7) 3_565 . ?
 O6 W2 O5 78.0(3) 2_665 . ?
 O6 W2 O5 78.0(3) 4_655 . ?
 O6 W2 O5 78.0(3) 3_565 . ?
 O6 W2 O5 78.0(3) . . ?
 O11 W2 O6 102.0(3) . 4_655 ?
 O11 W2 O6 102.0(3) . 3_565 ?
 O11 W2 O6 102.0(3) . . ?
 O11 W2 O6 102.0(3) . 2_665 ?
 O11 W2 O5 180.0 . . ?
 W5 O1 W1 116.2(6) . . ?
 W5 O4 W4 116.1(7) . . ?
 W2 O6 W3 114.7(6) . . ?
 W3 O8 W3 116.3(8) . 3_565 ?
 W3 O10 Cm1 128.1(6) . . ?
 W1 O12 Cm1 128.4(7) . . ?
 W4 O14 Cm1 130.6(7) . . ?
 W1 O16 W4 116.1(5) . . ?
 W3 O18 W3 116.2(7) 4_655 . ?
 W1 O20 W1 172.9(8) . 2_665 ?
 W4 O20 W1 89.84(4) 2_665 2_665 ?
 W4 O20 W1 89.84(4) . 2_665 ?
 W4 O20 W1 89.84(4) 2_665 . ?
 W4 O20 W1 89.84(4) . . ?
 W4 O20 W4 174.9(8) . 2_665 ?
 W5 O20 W1 93.6(4) . 2_665 ?
 W5 O20 W1 93.6(4) . . ?
 W5 O20 W4 92.6(4) . . ?
 W5 O20 W4 92.6(4) . 2_665 ?
 W3 O5 W3 176.3(12) . 2_665 ?
 W3 O5 W3 89.66(5) 4_655 2_665 ?
 W3 O5 W3 90.22(5) 3_565 2_665 ?
 W3 O5 W3 89.66(5) . 3_565 ?
 W3 O5 W3 90.22(5) . 4_655 ?
 W3 O5 W3 176.3(12) 3_565 4_655 ?
 W3 O5 W2 91.8(6) . . ?
 W3 O5 W2 91.8(6) 4_655 . ?
 W3 O5 W2 91.8(6) 2_665 . ?
 W3 O5 W2 91.8(6) 3_565 . ?

loop_
  _geom_torsion_atom_site_label_1
  _geom_torsion_atom_site_label_2
  _geom_torsion_atom_site_label_3
  _geom_torsion_atom_site_label_4
  _geom_torsion
  _geom_torsion_site_symmetry_1
  _geom_torsion_site_symmetry_2
  _geom_torsion_site_symmetry_3
  _geom_torsion_site_symmetry_4
  _geom_torsion_publ_flag
 O1 W1 O12 Cm1 0.000(5) . . . . ?
 O1 W5 O4 W4 77.1(4) 2_665 . . . ?
 O1 W5 O4 W4 -77.1(4) . . . . ?
 O4 W4 O14 Cm1 0.000(6) . . . . ?
 O4 W5 O4 W4 0.000(7) 2_665 . . . ?
 O6 W3 O10 Cm1 2.2(18) . . . . ?
 O8 W3 O10 Cm1 76.8(7) . . . . ?
 O16 W1 O12 Cm1 -76.4(3) 3_565 . . . ?
 O16 W1 O12 Cm1 76.4(3) . . . . ?
 O16 W4 O14 Cm1 76.5(3) 4_655 . . . ?
 O16 W4 O14 Cm1 -76.5(3) . . . . ?
 O18 W3 O10 Cm1 -75.8(7) . . . . ?
 O20 W1 O12 Cm1 0.000(1) . . . . ?
 O20 W4 O14 Cm1 0.000(1) . . . . ?
 O20 W5 O4 W4 0.000(1) . . . . ?
 O22 W4 O14 Cm1 180.000(1) . . . . ?
 O24 W5 O4 W4 180.000(1) . . . . ?
 O26 W3 O10 Cm1 -179.8(6) . . . . ?
 O5 W3 O10 Cm1 0.5(5) . . . . ?
 O21 W1 O12 Cm1 180.000(1) . . . . ?

_shelx_res_file
;
TITL na-cmw10_a.res in Imm2
    na-cmw10.res
    created by SHELXL-2019/3 at 13:37:26 on 15-Jan-2025
REM Old TITL Na-CmW10 in Imm2
REM SHELXT solution in Imm2: R1 0.077, Rweak 0.033, Alpha 0.003
REM <I/s> 0.000 for 0 systematic absences, Orientation as input
REM Flack x = 0.347 ( 0.041 ) from 1490 Parsons' quotients
REM Formula found by SHELXT: O73 Na5 Cs W10
CELL 0.71073 11.5075 15.2594 17.6418 90 90 90
ZERR 2 0.0005 0.0006 0.0007 0 0 0
LATT -2
SYMM -X,-Y,+Z
SYMM +X,-Y,+Z
SYMM -X,+Y,+Z
SFAC Cl Cm Na O W
UNIT 2 2 20 132 20

L.S. 99
PLAN  24
SIZE 0.03 0.03 0.15
CONF
CONN 0 Na4
CONN 0 Na2
CONN 0 Na1
CONN 0 Na3
list 4
MORE -1
fmap 2 53
acta
OMIT 1 4 -11
OMIT 1 6 -11
REM <olex2.extras>
REM <HklSrc "%.\\na-cmw10.hkl">
REM </olex2.extras>

WGHT    0.078400
FVAR       0.24649
W1    5    0.702109    0.500000    0.525425    10.50000    0.01616    0.01737 =
         0.02538    0.00000    0.00073    0.00000
W4    5    0.500000    0.348845    0.527772    10.50000    0.02129    0.01166 =
         0.02568    0.00015    0.00000    0.00000
W5    5    0.500000    0.500000    0.662583    10.25000    0.02065    0.02157 =
         0.01968    0.00000    0.00000    0.00000
CM1   2    0.500000    0.500000    0.352286    10.25000    0.04046    0.02127 =
         0.02741    0.00000    0.00000    0.00000
W3    5    0.642792    0.392845    0.178053    11.00000    0.04075    0.02172 =
         0.02582   -0.00338    0.00133    0.00298
W2    5    0.500000    0.500000    0.041859    10.25000    0.04151    0.03436 =
         0.02026    0.00000    0.00000    0.00000
O1    4    0.662429    0.500000    0.637642    10.50000    0.03058    0.02235 =
         0.02398    0.00000   -0.00909    0.00000
O4    4    0.500000    0.378770    0.638501    10.50000    0.02787    0.02749 =
         0.03107    0.01121    0.00000    0.00000
CL1   1    0.500000    0.000000    0.331735    10.25000    0.03848    0.02476 =
         0.04287    0.00000    0.00000    0.00000
O6    4    0.615704    0.414089    0.064465    11.00000    0.04709    0.03855 =
         0.02396   -0.00542    0.00449    0.00666
NA1   3    0.500000    0.000000    0.492746    10.25000    0.03431    0.03742 =
         0.03844    0.00000    0.00000    0.00000
O8    4    0.730087    0.500000    0.169378    10.50000    0.03171    0.03343 =
         0.03119    0.00000    0.00074    0.00000
NA4   3    0.667179    0.126939    0.348155    11.00000    0.03963    0.03756 =
         0.04803    0.00191    0.00279    0.00021
O10   4    0.631021    0.402552    0.278446    11.00000    0.04537    0.02304 =
         0.02074   -0.00333   -0.00105    0.00521
O12   4    0.683610    0.500000    0.425621    10.50000    0.02693    0.03100 =
         0.02949    0.00000    0.00807    0.00000
O14   4    0.500000    0.364987    0.427190    10.50000    0.02465    0.02617 =
         0.02772   -0.00829    0.00000    0.00000
O16   4    0.664175    0.377979    0.533521    11.00000    0.02981    0.01565 =
         0.03176    0.00507    0.00333    0.00499
NA2   3    1.000000    0.384303    0.516829    10.50000    0.02838    0.02949 =
         0.05552    0.00280    0.00000    0.00000
O18   4    0.500000    0.326159    0.171828    10.50000    0.05686    0.01584 =
         0.03876    0.00317    0.00000    0.00000
O20   4    0.500000    0.500000    0.533635    10.25000    0.01545
O22   4    0.500000    0.235729    0.541974    10.50000    0.04256    0.01382 =
         0.03555   -0.00357    0.00000    0.00000
O24   4    0.500000    0.500000    0.761028    10.25000    0.04062    0.04707 =
         0.00829    0.00000    0.00000    0.00000
O26   4    0.749393    0.313391    0.165658    11.00000    0.04452    0.03538 =
         0.05127   -0.00797    0.00031    0.00841
O28   4    0.719642    0.130099    0.217047    11.00000    0.05173    0.04835 =
         0.04332   -0.00984    0.00812    0.01270
O7    4    0.658254    0.108051    0.487069    11.00000    0.05102    0.02663 =
         0.04477   -0.00465   -0.00128   -0.00055
O15   4    0.500000    0.224291    0.323950    10.50000    0.05099    0.02011 =
         0.06252   -0.00155    0.00000    0.00000
O2    4    0.837559    0.500000    0.322720    10.50000    0.14215    0.05840 =
         0.06821    0.00000   -0.03683    0.00000
O17   4    0.857746    0.272641    0.510239    11.00000    0.04399    0.03047 =
         0.06860    0.01298    0.00502   -0.00001
O9    4    0.767655    0.266937    0.358048    11.00000    0.07025    0.04429 =
         0.07648    0.00489   -0.01518   -0.00741
O19   4    1.000000    0.366128    0.649206    10.50000    0.04240    0.19582 =
         0.04441   -0.00903    0.00000    0.00000
O5    4    0.500000    0.500000    0.173863    10.25000    0.05529    0.01049 =
         0.03708    0.00000    0.00000    0.00000
O21   4    0.849401    0.500000    0.533826    10.50000    0.03008    0.02824 =
         0.04329    0.00000   -0.00039    0.00000
O11   4    0.500000    0.500000   -0.057761    10.25000    0.05179    0.09228 =
         0.01730    0.00000    0.00000    0.00000
O23   4    0.798225    0.000000    0.357572    10.50000    0.03181    0.04474 =
         0.04138    0.00000    0.00123    0.00000
O3    4    0.964069    0.401641    0.384322    10.50000    0.07941    0.10604 =
         0.06623   -0.01673    0.01198   -0.02967
NA3   3    0.874126    0.224377    0.232440    10.75000    0.12390    0.10472 =
         0.11379    0.02897   -0.00416    0.00554
O25   4    0.473646    0.000000    0.635521    10.25000    0.02710    0.22111 =
         0.03789    0.00000   -0.00669    0.00000
O13   4    1.000000    0.332577    0.197218    10.37500    0.04098    0.07626 =
         0.24724    0.01647    0.00000    0.00000
O27   4    1.000000    0.178516    0.333205    10.37500    0.07770    0.10362 =
         0.06531   -0.03079    0.00000    0.00000
HKLF 4




REM  na-cmw10_a.res in Imm2
REM wR2 = 0.1015, GooF = S = 1.045, Restrained GooF = 1.044 for all data
REM R1 = 0.0377 for 4515 Fo > 4sig(Fo) and 0.0388 for all 4660 data
REM 251 parameters refined using 1 restraints

END

WGHT      0.0785      0.0000

REM Highest difference peak  1.436,  deepest hole -5.067,  1-sigma level  0.367
Q1    1   0.7006  0.4802  0.5520  11.00000  0.05    1.44
Q2    1   0.5000  0.3318  0.6236  10.50000  0.05    1.38
Q3    1   0.5843  0.5000  0.4365  10.50000  0.05    1.30
Q4    1   0.5783  0.4228  0.2384  11.00000  0.05    1.27
Q5    1   0.5000  0.2606  0.4974  10.50000  0.05    1.25
Q6    1   0.5000  0.3213  0.4980  10.50000  0.05    1.22
Q7    1   0.5000  0.4364  0.3455  10.50000  0.05    1.19
Q8    1   0.5997  0.5625  0.6614  11.00000  0.05    1.16
Q9    1   1.0000  0.2381  0.2797  10.50000  0.05    1.15
Q10   1   0.5828  0.4202  0.1197  11.00000  0.05    1.14
Q11   1   0.4225  0.5000  0.8063  10.50000  0.05    1.11
Q12   1   0.4615  0.5589  0.4837  11.00000  0.05    1.09
Q13   1   0.5000  0.4176 -0.0017  10.50000  0.05    1.08
Q14   1   0.7028  0.4212  0.1197  11.00000  0.05    1.07
Q15   1   0.6454  0.4202  0.1441  11.00000  0.05    1.04
Q16   1   0.6223  0.5339  0.4662  11.00000  0.05    1.03
Q17   1   0.5000  0.2147  0.5188  10.50000  0.05    1.02
Q18   1   0.5000  0.4217  0.3942  10.50000  0.05    1.02
Q19   1   0.5651  0.3177  0.5869  11.00000  0.05    1.02
Q20   1   0.5000  0.5000  0.4851  10.25000  0.05    1.02
Q21   1   0.5000  0.4224  0.0914  10.50000  0.05    1.00
Q22   1   0.6680  0.4133  0.5582  11.00000  0.05    1.00
Q23   1   0.7230  0.3030  0.6030  11.00000  0.05    1.00
Q24   1   0.5000  0.5414 -0.1451  10.50000  0.05    0.99
;
_shelx_res_checksum                79441
_shelx_hkl_file
;
   0   0   4 1472.59 59.4240   9
   0   0   4 1757.33 51.1446   7
   0   0   6 114764. 1733.06   7
   0   0   6 113408. 1766.82   9
   0   0   8 42394.1 527.595   9
   0   0   8 42402.2 464.348   7
   0   0  10 7292.16 203.228   9
   0   0  10 7210.92 154.990   8
   0   0  10 7701.09 171.861   7
   0   0  12 28513.0 501.530   7
   0   0  12 27405.6 558.211   9
   0   0  14 11622.3 337.264   4
   0   0  14 15946.7 378.875   9
   0   0  14 12946.9 288.617   8
   0   0  14 15630.0 317.770   7
   0   0  14 12474.5 263.095   1
   0   0  16 6878.49 196.403   8
   0   0  18 2267.77 134.457   4
   0   0  18 2407.24 116.005   8
   0   0  18 2716.14 94.7976   1
   0   0  20 4542.55 202.843   4
   0   0  20 6280.27 215.196   7
   0   0  20 4179.05 199.319   3
   0   0  20 5756.12 143.687   1
   0   0  22 2834.23 155.919   4
   0   0  22 2554.96 153.759   3
   0   0  24 288.765 51.6277   4
   0  -1  -3 10618.7 201.403   9
   0   1  -3 11278.8 204.714   9
   0   1   3 17012.0 255.368   7
   0  -1   3 17094.5 269.678   8
   0  -1   5 8699.58 204.474   9
   0  -1   5 9038.92 187.740   7
   0  -1   7 3819.44 118.389   9
   0  -1   7 3975.01 102.274   7
   0   1   7 3859.10 121.226   9
   0   1   7 4072.34 94.5641   7
   0  -1   7 4150.07 96.4046   8
   0  -1   9 23132.3 331.037   8
   0  -1   9 25208.7 396.301   9
   0   1   9 24032.1 396.972   9
   0  -1   9 24520.9 348.889   7
   0   1   9 26244.3 338.960   7
   0  -1  11 15816.3 306.148   7
   0  -1  11 15076.8 287.442   8
   0   1  11 15967.0 355.597   9
   0  -1  11 16141.7 352.330   9
   0  -1  13 1701.56 103.440   4
   0  -1  13 1814.20 83.1528   8
   0  -1  13 1898.57 91.6254   7
   0   1  13 2192.56 122.204   9
   0   1  13 2090.42 89.9431   7
   0  -1  13 2054.10 117.293   9
   0   1  13 1543.12 70.0225   1
   0  -1  13 1571.68 70.6488   1
   0   1  15 6625.14 249.193   4
   0  -1  15 8805.26 274.411   9
   0   1  15 8808.78 281.854   9
   0   1  15 7704.28 197.370   8
   0  -1  15 8490.19 224.896   7
   0  -1  15 7195.17 178.932   1
   0  -1  15 6915.76 230.454   3
   0   1  15 7367.58 173.518   1
   0  -1  17 9033.81 278.208   4
   0   1  17 9147.68 203.729   1
   0  -1  17 9836.42 222.683   1
   0   1  17 9406.35 244.195   8
   0  -1  17 9591.29 257.441   8
   0  -1  19 50.6007 25.6535   4
   0   1  19 16.7644 23.9132   4
   0  -1  19 28.2076 24.9180   3
   0  -1  19 47.3426 19.0357   1
   0   1  19 39.8180 15.8576   1
   0  -1  19 23.7353 22.9143   8
   0  -1  19 22.0408 21.8967   7
   0   1  19 26.3971 24.0341   7
   0  -1  21 1857.77 119.333   4
   0   1  21 1787.22 129.108   4
   0   1  21 1592.74 123.633   3
   0   1  21 2206.66 70.0595   1
   0  -1  21 2373.81 85.6332   1
   0  -1  21 1724.72 121.354   3
   0  -1  21 2398.42 134.477   7
   0   1  21 2368.31 131.622   7
   0  -1  23 4007.03 177.421   4
   0   1  23 3744.07 187.287   4
   0  -1  23 3256.55 174.205   3
   0   1  23 3495.05 187.811   3
   0  -1  25 147.159 37.0615   4
   0   2  -6 27.8991 19.8820   1
   0   2  -6 12879.9 160.924   8
   0   2  -4 3.15968 8.69353   1
   0   2  -4 544.569 31.5502   8
   0   2  -2 4895.36 106.252   1
   0  -2   2 4527.76 124.489   8
   0  -2   4 720.335 39.7650   8
   0  -2   6 11979.1 237.180   3
   0  -2   6 10385.3 220.360   7
   0   2   6 10264.3 236.734   9
   0   2   6 12745.1 203.461   7
   0  -2   6 11556.1 229.953   8
   0  -2   6 10986.3 237.724   9
   0  -2   6 10162.6 187.888   5
   0  -2   8 6326.10 173.465   3
   0   2   8 6157.38 178.363   9
   0  -2   8 6722.25 158.940   8
   0  -2   8 6614.00 178.728   9
   0  -2   8 6176.31 157.432   7
   0  -2   8 6646.55 116.569   5
   0  -2  10 3636.54 133.026   4
   0  -2  10 4067.09 124.513   8
   0  -2  10 3943.62 126.702   7
   0  -2  10 4174.75 148.913   9
   0   2  10 4206.44 153.136   9
   0  -2  10 3793.68 136.725   3
   0  -2  12 2534.55 116.231   4
   0   2  12 3234.11 107.908   7
   0   2  12 3063.54 141.280   9
   0  -2  12 2942.20 112.732   8
   0  -2  12 2593.33 108.698   7
   0  -2  12 3028.16 137.242   9
   0  -2  12 2799.87 123.716   3
   0   2  14 1158.95 92.8092   9
   0  -2  14 970.859 67.8792   8
   0  -2  14 1070.04 71.5729   7
   0  -2  14 951.993 56.0895   1
   0  -2  14 1006.38 77.2504   3
   0   2  14 997.145 54.1225   1
   0   2  16 1791.52 128.011   4
   0  -2  16 2069.92 111.581   4
   0   2  16 1801.11 71.7323   1
   0  -2  16 2128.15 89.6658   1
   0  -2  16 2498.61 117.708   7
   0  -2  16 2224.50 110.281   8
   0   2  16 2876.33 116.951   7
   0  -2  18 96.5887 27.1906   4
   0  -2  18 132.258 26.7896   1
   0   2  18 103.809 17.3924   1
   0  -2  18 79.4497 29.1929   3
   0   2  18 91.4501 24.2226   8
   0  -2  18 78.1190 27.9361   8
   0   2  18 167.499 35.3753   7
   0   2  20 96.6020 17.5792   1
   0  -2  20 98.8054 21.4950   1
   0  -2  20 87.8754 32.0392   3
   0  -2  20 63.4844 26.4674   4
   0   2  20 73.6315 34.8505   4
   0   2  20 61.6500 30.1254   7
   0  -2  20 75.4383 32.6360   7
   0  -2  22 655.897 74.6841   3
   0   2  22 652.617 82.5605   3
   0  -2  22 787.842 73.2073   4
   0   2  22 738.931 86.9522   4
   0  -2  24 2.51555 24.0498   3
   0  -2  24 23.9048 23.2910   4
   0  -3  -9 8939.94 154.489   5
   0   3  -7 5702.83 123.924   8
   0  -3  -7 6226.08 78.2369   5
   0   3  -5 5477.08 125.079   8
   0  -3  -5 5078.74 87.8285   5
   0   3  -3 24457.9 395.466   1
   0   3  -3 19902.2 409.371   8
   0   3  -1 2450.94 54.7010   2
   0   3  -1 3763.41 91.3510   1
   0  -3   1 1962.96 44.4192   2
   0  -3   3 21122.8 401.642   8
   0  -3   3 20096.1 325.970   9
   0  -3   5 5453.73 101.722   3
   0   3   5 5530.83 64.7560   7
   0  -3   7 4955.03 125.704   4
   0  -3   7 5013.02 138.264   3
   0  -3   7 3745.70 119.800   1
   0   3   7 6035.07 114.252   7
   0  -3   7 4936.45 136.244   7
   0   3   7 4770.40 147.887   9
   0  -3   7 5706.40 155.509   8
   0  -3   7 5187.52 148.012   9
   0  -3   7 5023.52 108.578   5
   0  -3   9 7974.56 194.714   4
   0  -3   9 7995.50 206.218   3
   0  -3   9 7667.35 186.491   1
   0  -3   9 8023.72 201.515   7
   0  -3   9 8768.16 222.871   9
   0   3   9 9823.37 180.440   7
   0  -3   9 9080.20 219.895   8
   0   3   9 7843.85 223.040   9
   0  -3   9 8000.54 156.875   5
   0  -3  11 4244.47 139.973   4
   0  -3  11 3987.96 143.037   3
   0  -3  11 3986.89 124.930   1
   0  -3  11 4289.92 143.724   7
   0   3  11 4318.68 167.176   9
   0  -3  11 4601.18 150.825   8
   0  -3  11 4307.26 161.086   9
   0  -3  13 5538.90 180.193   8
   0  -3  13 5324.77 172.158   7
   0  -3  13 5800.40 202.396   9
   0   3  13 5687.42 210.265   9
   0  -3  13 5688.52 106.122   5
   0   3  15 584.677 74.7632   4
   0  -3  15 708.082 60.0780   4
   0   3  15 705.623 44.0562   1
   0  -3  15 739.080 54.2763   1
   0  -3  15 823.611 66.7490   7
   0   3  15 830.254 82.1378   9
   0  -3  15 726.031 64.9617   8
   0   3  15 835.200 58.7179   7
   0   3  17 261.977 54.1502   4
   0  -3  17 259.678 38.8620   4
   0   3  17 244.414 24.6131   1
   0  -3  17 246.391 42.7954   3
   0  -3  17 332.497 40.7148   1
   0  -3  17 268.170 45.5083   8
   0  -3  17 228.894 40.2780   7
   0   3  17 301.673 41.6934   7
   0  -3  19 1950.95 118.187   3
   0   3  19 2028.12 65.8366   1
   0  -3  19 2626.80 102.948   1
   0  -3  19 2309.54 118.738   4
   0   3  19 2924.97 130.236   7
   0  -3  21 182.289 28.3429   1
   0  -3  21 117.287 34.9815   3
   0   3  21 102.265 39.6049   4
   0  -3  21 128.088 31.8545   4
   0   3  21 219.985 43.6671   7
   0  -3  23 104.626 35.6387   3
   0   3  23 129.676 44.4528   4
   0  -3  23 149.709 34.8488   4
   0   3  23 144.517 41.8726   7
   0  -3  25 417.089 52.6502   4
   0  -4 -10 11700.7 205.656   5
   0   4  -8 5266.58 138.376   8
   0  -4  -8 5840.89 94.4054   5
   0   4  -6 460.821 40.9057   3
   0   4  -6 390.382 37.4824   8
   0  -4  -6 433.529 27.2195   5
   0   4  -4 16421.0 290.431   3
   0   4  -4 15779.6 332.272   8
   0   4  -2 12787.5 216.644   2
   0   4   0 31.3367 9.95279   1
   0   4   0 143.781 11.3631   2
   0  -4   2 12889.8 211.287   2
   0  -4   2 12196.3 209.947   9
   0  -4   4 18594.1 406.229   8
   0  -4   4 18142.9 311.502   9
   0  -4   6 523.235 37.9207   9
   0  -4   6 452.158 35.2705   7
   0   4   6 378.178 34.9882   9
   0  -4   6 493.234 53.1081   8
   0   4   6 420.392 19.7466   7
   0  -4   8 5346.90 126.347   4
   0  -4   8 5265.53 145.579   3
   0  -4   8 5967.92 187.660   8
   0  -4   8 5223.38 156.946   9
   0  -4   8 5120.46 148.679   7
   0   4   8 4960.18 161.691   9
   0  -4   8 4989.83 120.090   5
   0   4   8 5771.75 118.894   7
   0  -4  10 12347.2 281.371   3
   0  -4  10 12603.9 262.418   4
   0   4  10 12938.2 317.928   9
   0  -4  10 13185.4 309.987   9
   0  -4  10 13936.5 323.908   8
   0  -4  10 13520.4 292.818   7
   0   4  10 14685.8 253.518   7
   0  -4  12 1681.13 88.6167   3
   0   4  12 1741.07 109.226   9
   0  -4  12 1989.33 96.0651   7
   0  -4  12 1983.72 107.268   8
   0  -4  12 1995.18 108.104   9
   0  -4  12 1750.77 58.5280   5
   0  -4  14 2455.04 106.981   1
   0  -4  14 2350.83 122.559   8
   0   4  14 2270.23 134.770   9
   0  -4  14 2318.14 127.482   9
   0  -4  14 2333.12 113.419   7
   0   4  14 2472.44 97.0001   7
   0  -4  14 2360.14 64.0576   5
   0  -4  16 3228.39 124.113   4
   0   4  16 2599.61 167.361   4
   0  -4  16 3069.41 135.069   3
   0   4  16 1951.21 83.1105   1
   0  -4  16 3530.17 133.132   1
   0  -4  16 3300.16 153.344   8
   0  -4  16 3517.08 146.393   7
   0   4  16 3977.46 132.625   7
   0  -4  18 1648.21 104.914   3
   0   4  18 1577.78 130.165   4
   0  -4  18 2054.63 102.215   4
   0  -4  18 2092.73 95.8714   1
   0   4  18 2047.72 67.5067   1
   0  -4  18 2081.51 128.864   8
   0  -4  18 2270.73 123.976   7
   0   4  18 2570.63 117.102   7
   0  -4  20 2746.74 111.122   1
   0  -4  20 2542.91 117.522   4
   0  -4  22 935.871 70.6836   4
   0   4  22 805.289 95.8861   4
   0  -4  22 836.609 79.5281   3
   0  -4  24 679.291 59.5460   4
   0  -4  24 630.718 70.9666   3
   0  -5 -13 10048.3 180.034   5
   0   5  -9 97.0744 39.0007   1
   0  -5  -9 8174.85 119.710   5
   0   5  -7 20676.6 384.714   3
   0   5  -7 13432.4 366.132   1
   0   5  -7 16242.3 365.464   8
   0  -5  -7 20329.1 330.290   5
   0   5  -5 10166.9 213.957   3
   0   5  -5 10381.6 245.055   1
   0   5  -5 8935.85 246.339   8
   0  -5  -5 9314.44 200.387   5
   0   5  -3 10816.3 231.631   1
   0   5  -3 9152.58 263.101   8
   0   5  -1 31373.1 550.559   1
   0  -5   3 8662.23 163.282   2
   0  -5   3 8650.40 166.436   9
   0  -5   5 9967.68 193.707   2
   0   5   5 9330.10 214.256   9
   0  -5   5 9850.92 211.632   9
   0   5   7 16174.2 346.907   9
   0  -5   7 16586.9 342.228   7
   0  -5   9 8861.71 227.032   9
   0  -5   9 8566.90 220.107   7
   0   5   9 8309.80 231.988   9
   0  -5   9 8522.21 183.971   5
   0  -5  11 6061.85 175.529   3
   0  -5  11 6403.65 189.636   7
   0  -5  11 6024.87 196.936   9
   0   5  11 5954.83 208.138   9
   0  -5  13 12378.3 259.624   4
   0   5  13 11879.7 337.779   9
   0  -5  13 13051.3 307.128   7
   0  -5  13 12393.5 346.317   8
   0   5  13 13387.1 265.902   7
   0  -5  13 11549.6 232.879   5
   0  -5  15 2666.50 102.988   4
   0  -5  15 2684.12 122.353   3
   0  -5  15 3191.53 131.202   1
   0  -5  15 3181.10 139.820   7
   0  -5  15 3234.46 165.774   8
   0   5  15 3284.90 116.279   7
   0  -5  15 3081.35 82.2572   5
   0  -5  17 560.144 47.1913   4
   0  -5  17 522.485 55.8408   3
   0  -5  17 583.835 51.6821   1
   0   5  17 605.639 40.8899   1
   0  -5  17 583.706 73.4695   8
   0  -5  17 557.487 61.6838   7
   0   5  17 687.105 56.8614   7
   0   5  19 4411.67 101.215   1
   0  -5  19 5956.34 173.409   1
   0  -5  19 5519.87 163.486   4
   0  -5  19 4807.27 184.499   3
   0   5  19 4110.30 227.964   4
   0   5  19 6530.50 195.753   7
   0  -5  21 1505.84 102.331   3
   0  -5  21 1826.34 90.4242   4
   0  -5  23 129.870 28.7009   4
   0   5  23 165.045 44.5620   7
   0  -6 -14 1533.44 51.2335   5
   0  -6 -12 4217.23 107.399   5
   0   6 -10 1121.62 127.304   1
   0  -6 -10 24227.0 236.622   5
   0   6  -8 9708.88 230.600   3
   0  -6  -8 8816.18 176.751   5
   0   6  -6 12418.2 260.787   3
   0  -6  -6 11995.3 245.373   5
   0   6  -4 11330.6 323.365   8
   0  -6  -4 10976.2 245.580   5
   0   6  -2 17229.0 321.107   1
   0   6  -2 14062.2 255.589   2
   0   6   0 13326.0 231.766   2
   0  -6   4 12159.4 225.029   2
   0   6   4 13436.1 244.587   9
   0  -6   6 9940.33 197.716   2
   0  -6   6 9855.59 229.161   7
   0  -6   6 10109.6 220.471   9
   0   6   6 10066.0 228.047   9
   0  -6   6 10658.3 219.741   5
   0  -6   8 8978.57 222.057   7
   0  -6   8 8882.46 219.064   9
   0   6   8 9327.76 234.908   9
   0  -6   8 8627.08 195.261   5
   0  -6  10 25359.4 488.651   1
   0   6  10 23887.7 497.337   9
   0  -6  10 23283.5 476.684   9
   0  -6  10 23725.8 471.337   7
   0  -6  10 24854.1 587.925   8
   0  -6  12 4184.19 104.398   4
   0  -6  12 4400.98 203.996   8
   0  -6  12 4323.88 155.273   7
   0  -6  14 2032.86 74.5411   4
   0  -6  14 2074.92 101.599   1
   0  -6  14 1963.81 137.832   8
   0  -6  14 1985.44 106.767   7
   0   6  14 2133.72 83.7567   7
   0  -6  14 1916.36 71.8911   5
   0  -6  16 9410.43 209.570   4
   0  -6  16 8999.53 239.511   1
   0  -6  16 9578.78 277.034   7
   0  -6  16 9439.51 330.529   8
   0   6  16 10186.8 235.173   7
   0  -6  16 9652.88 192.786   5
   0  -6  18 3334.40 133.380   1
   0  -6  18 3470.19 159.273   7
   0   6  18 3601.28 136.635   7
   0  -6  18 3656.58 80.5208   6
   0   6  20 24.7512 33.8805   4
   0  -6  20 41.2912 18.4475   4
   0  -6  22 2462.28 100.044   4
   0  -7 -17 2340.92 57.9490   6
   0  -7 -15 3195.81 86.8768   5
   0   7 -13 4189.11 169.682   8
   0  -7 -13 4622.27 119.058   5
   0   7 -11 2376.31 155.375   1
   0  -7  -9 7825.91 185.153   5
   0   7  -7 12346.9 270.794   3
   0   7  -7 11746.7 306.734   1
   0  -7  -5 5692.88 155.941   5
   0   7  -3 4011.42 98.9001   2
   0   7  -3 4058.74 142.842   1
   0   7  -1 15032.8 263.135   2
   0  -7   3 3413.45 84.5399   2
   0  -7   5 6099.65 161.679   7
   0  -7   5 6261.07 159.374   5
   0  -7   7 11182.2 217.209   2
   0  -7   7 11144.1 255.350   7
   0  -7   7 11185.2 239.930   5
   0  -7   9 8009.39 213.245   7
   0  -7   9 7918.18 187.233   5
   0  -7  11 4514.23 86.1728   4
   0  -7  11 4339.55 224.599   8
   0  -7  11 4249.25 154.611   7
   0  -7  13 4993.39 109.535   4
   0  -7  13 5126.44 248.376   8
   0  -7  13 5328.25 181.519   7
   0  -7  13 4811.73 135.404   5
   0  -7  15 3737.39 98.4411   4
   0  -7  15 3786.60 142.714   1
   0  -7  15 4035.12 164.223   7
   0  -7  15 3583.50 215.054   8
   0  -7  15 3699.68 111.424   5
   0  -7  17 3630.07 103.188   4
   0  -7  17 3638.86 144.064   1
   0  -7  17 3795.99 167.389   7
   0  -7  17 3839.35 222.850   8
   0  -7  17 3611.48 103.347   5
   0   7  19 1240.87 50.9530   1
   0  -7  19 1630.91 67.9920   4
   0   7  19 1185.99 126.411   4
   0  -7  19 1716.71 54.8263   6
   0  -7  21 1867.14 76.1751   4
   0  -8 -18 659.362 28.8954   6
   0  -8 -16 2632.67 81.8611   5
   0   8 -14 3108.64 148.687   8
   0  -8 -14 3423.39 104.611   5
   0   8 -12 8289.90 249.569   8
   0  -8 -12 9772.36 200.872   5
   0   8 -10 1825.38 136.321   1
   0   8  -8 11364.5 318.761   1
   0   8  -8 10734.0 262.823   3
   0   8  -6 32206.3 714.794   8
   0  -8  -6 33879.6 639.741   5
   0   8  -4 299.652 52.5470   8
   0  -8  -4 340.830 36.6971   5
   0   8  -2 5753.73 129.420   2
   0   8  -2 6177.44 183.743   1
   0   8  -2 5765.94 141.369   4
   0  -8  -2 5664.80 165.089   5
   0   8   0 69590.0 951.040   2
   0   8   0 44653.2 999.032   1
   0   8   2 1783.69 88.1488   1
   0  -8   4 431.444 27.2406   2
   0  -8   4 488.519 41.9902   5
   0  -8   6 35690.6 597.953   7
   0  -8   6 34286.7 587.075   5
   0  -8   8 8560.09 221.936   7
   0  -8   8 8617.82 205.256   5
   0  -8  10 2762.25 117.675   1
   0  -8  10 3276.85 129.648   7
   0  -8  12 9155.03 245.694   1
   0  -8  12 9761.33 262.869   7
   0  -8  12 10130.0 381.616   8
   0  -8  12 9282.21 219.408   5
   0   8  14 2043.16 162.348   4
   0  -8  14 2641.95 61.1316   4
   0  -8  14 3235.92 134.166   1
   0  -8  14 3562.51 151.420   7
   0  -8  14 3917.80 230.809   8
   0  -8  14 3522.95 111.193   5
   0  -8  16 3284.78 74.4985   4
   0   8  16 1946.90 164.217   4
   0  -8  16 2948.80 129.875   1
   0   8  16 2038.31 85.2576   1
   0  -8  16 3092.30 148.362   7
   0  -8  16 3310.69 217.378   8
   0  -8  16 3004.22 102.046   5
   0   8  18 1090.39 53.7816   1
   0  -8  18 1152.28 45.3715   4
   0  -8  18 1022.91 53.7463   5
   0  -8  20 1160.50 49.1202   4
   0  -8  20 1206.35 48.0241   6
   0  -9 -19 381.775 22.5311   6
   0  -9 -17 3279.87 97.8057   5
   0  -9 -15 3454.01 109.288   5
   0   9 -13 3275.65 151.663   8
   0  -9 -13 3741.13 114.248   5
   0   9 -11 4785.24 185.639   8
   0  -9 -11 5254.56 149.148   5
   0   9  -9 8388.44 284.148   1
   0  -9  -9 6277.76 184.504   5
   0  -9  -7 4498.20 150.686   5
   0   9  -5 4347.42 205.816   8
   0  -9  -5 4588.77 153.189   5
   0   9  -3 2142.90 63.5914   4
   0   9  -3 2124.77 71.3889   2
   0   9  -3 2313.12 113.735   1
   0  -9  -3 2080.40 96.3220   5
   0   9  -1 4159.56 107.660   2
   0   9  -1 4913.14 165.998   1
   0   9  -1 4062.35 134.423   4
   0  -9  -1 4668.04 149.300   5
   0   9   1 5034.45 122.657   2
   0  -9   1 5344.89 161.488   5
   0  -9   3 2031.99 85.5141   7
   0  -9   3 2218.05 97.5944   5
   0  -9   5 4448.05 139.731   7
   0  -9   5 4732.73 145.633   5
   0  -9   7 4994.07 150.997   7
   0  -9   7 4755.66 144.283   5
   0  -9   9 6003.17 148.168   2
   0  -9   9 5930.85 187.992   1
   0  -9   9 6109.61 174.683   5
   0  -9  11 4925.68 164.252   1
   0  -9  11 5192.34 173.911   7
   0  -9  11 4858.06 143.242   5
   0   9  13 2403.53 175.546   4
   0   9  13 2308.54 100.358   1
   0  -9  13 3618.42 115.508   2
   0  -9  13 4359.78 250.077   8
   0  -9  13 3918.57 157.152   7
   0  -9  13 3861.63 125.557   5
   0  -9  15 3908.49 153.751   1
   0   9  15 3927.30 124.407   1
   0  -9  15 4260.86 173.401   7
   0  -9  15 3920.77 129.284   5
   0   9  17 3824.32 121.812   1
   0   9  17 2455.21 186.772   4
   0   9  19 683.435 38.7164   1
   0   9  19 460.725 85.5228   4
   0 -10 -18 1204.98 57.3222   5
   0 -10 -16 2884.57 101.858   5
   0  10 -14 1549.79 111.841   8
   0 -10 -14 1747.87 83.0301   5
   0  10 -12 4642.22 195.407   8
   0 -10 -12 5434.24 162.861   5
   0  10 -10 8072.39 229.937   3
   0  10 -10 5783.95 217.937   8
   0  10  -8 8612.29 284.744   1
   0 -10  -8 6667.40 202.932   5
   0 -10  -6 16062.2 357.094   5
   0 -10  -4 4904.55 165.913   5
   0  10  -2 6957.84 167.894   4
   0  10  -2 7092.52 159.205   2
   0  10   0 31949.3 516.690   2
   0 -10   0 31195.6 527.927   7
   0  10   2 7360.14 157.397   2
   0 -10   2 7319.45 174.639   7
   0 -10   4 5112.85 152.790   7
   0 -10   4 4955.26 164.428   5
   0 -10   6 15707.9 342.244   7
   0 -10   6 16108.8 347.173   5
   0 -10   8 5942.40 145.466   2
   0 -10   8 6361.28 184.136   5
   0 -10  10 5746.01 142.849   2
   0 -10  10 5754.13 188.467   1
   0 -10  12 5108.03 181.257   1
   0  10  12 5397.16 160.719   1
   0 -10  12 5138.00 140.766   2
   0 -10  12 5497.24 189.764   7
   0 -10  12 5043.71 158.795   5
   0 -10  14 1698.62 77.6958   2
   0 -10  14 1839.66 112.068   7
   0 -10  14 1791.07 87.6716   5
   0 -10  16 2824.62 108.519   2
   0 -10  16 2926.49 113.845   5
   0  10  18 1500.74 71.6947   1
   0 -10  18 1592.08 78.7075   5
   0 -10  20 326.113 38.5955   2
   0 -10  22 820.031 61.7582   2
   0 -11 -17 1310.55 69.0823   5
   0  11 -15 429.485 63.0469   8
   0 -11 -15 536.294 48.1462   5
   0  11 -13 887.052 119.710   1
   0  11 -13 935.770 88.0441   8
   0 -11 -13 1018.59 69.7865   5
   0  11 -11 1277.03 131.824   1
   0  11 -11 1001.57 90.5911   8
   0 -11 -11 1133.29 75.6370   5
   0  11  -9 485.315 75.6289   1
   0  11  -9 502.248 53.7597   3
   0  11  -9 333.609 55.7255   8
   0  11  -7 2472.73 149.467   1
   0 -11  -7 2117.00 109.469   5
   0 -11  -5 827.909 67.4849   5
   0  11  -3 20.8100 11.5261   2
   0  11  -3 25.4692 23.4357   1
   0 -11  -3 14.8042 19.1433   5
   0  11  -1 3166.02 96.6974   2
   0 -11  -1 3273.55 136.490   5
   0  11   1 2773.50 132.370   4
   0  11   1 2903.87 91.7141   2
   0 -11   1 3065.68 105.095   7
   0  11   3 16.1530 21.9279   1
   0 -11   3 30.6811 15.2839   7
   0 -11   3 26.3475 20.2423   5
   0 -11   5 920.794 63.4044   7
   0 -11   5 1010.55 71.2838   5
   0 -11   7 1817.67 68.7314   2
   0 -11   7 2042.25 100.815   7
   0 -11   7 2041.90 100.377   5
   0 -11   9 365.975 31.3531   2
   0  11   9 474.110 50.6546   1
   0 -11   9 451.354 50.6858   7
   0 -11   9 425.925 45.8072   5
   0 -11  11 1055.44 56.3914   2
   0  11  11 1297.34 81.6277   1
   0 -11  11 1192.17 85.2286   7
   0 -11  11 1121.69 72.8064   5
   0 -11  13 992.918 57.1791   2
   0  11  13 1180.98 80.2781   1
   0 -11  13 1125.20 86.4093   7
   0 -11  13 948.304 66.7725   5
   0 -11  15 418.182 39.0695   2
   0 -11  15 397.148 44.2915   5
   0  11  17 1639.08 86.5461   1
   0 -11  17 1378.08 73.1129   2
   0 -11  17 1560.32 82.5782   5
   0  11  19 175.873 26.5090   1
   0 -11  19 162.382 28.5203   2
   0 -11  19 131.795 26.1617   5
   0 -11  21 308.404 37.5219   2
   0 -12 -18 297.652 35.8363   5
   0  12 -16 2401.84 147.410   8
   0 -12 -16 2296.33 105.343   5
   0  12 -14 794.258 85.7882   8
   0 -12 -14 1007.20 71.6958   5
   0  12 -12 1114.42 97.7479   8
   0 -12 -12 1371.97 86.5542   5
   0  12 -10 3766.78 222.513   1
   0  12 -10 3229.98 174.180   8
   0 -12 -10 3703.97 151.327   5
   0  12  -8 4168.85 151.863   3
   0 -12  -8 3827.05 156.923   5
   0  12  -6 4646.47 236.490   8
   0 -12  -6 4956.66 181.780   5
   0  12  -4 3734.73 77.4466   4
   0 -12  -4 4331.40 162.669   5
   0  12  -2 4155.59 123.364   4
   0  12  -2 4803.31 191.786   1
   0 -12  -2 4538.89 167.355   5
   0  12   0 9200.66 210.350   2
   0 -12   0 11852.9 289.870   5
   0  12   2 3872.03 115.998   2
   0 -12   2 4324.88 161.696   5
   0 -12   4 4173.22 145.383   7
   0 -12   4 4553.86 164.374   5
   0 -12   6 4944.51 166.490   7
   0 -12   6 4964.87 172.181   5
   0  12   8 2897.66 183.861   4
   0 -12   8 3257.58 102.373   2
   0 -12   8 4115.23 152.168   7
   0 -12   8 3853.86 147.742   5
   0  12  10 2724.02 191.506   4
   0  12  10 5062.99 193.281   1
   0 -12  10 3531.07 108.414   2
   0 -12  10 4288.30 164.159   7
   0 -12  12 1063.11 56.6712   2
   0 -12  12 1215.67 89.1024   7
   0 -12  12 1081.58 74.6979   5
   0  12  14 1297.74 91.8357   1
   0 -12  14 873.770 53.4138   2
   0  12  14 528.457 90.1196   4
   0 -12  14 950.687 69.4499   5
   0 -12  16 2336.55 92.6053   2
   0 -12  16 2364.71 111.003   5
   0  12  18 362.624 41.7766   1
   0 -12  18 285.508 34.1252   2
   0 -12  18 309.000 40.6294   5
   0 -12  20 110.599 25.3435   2
   0  13 -17 538.956 73.7874   8
   0 -13 -17 558.579 51.6221   5
   0  13 -15 1896.37 133.193   8
   0 -13 -15 2090.17 109.227   5
   0  13 -13 7841.09 292.208   8
   0 -13 -13 9329.22 266.162   5
   0  13 -11 2773.20 140.479   3
   0 -13 -11 2674.53 132.383   5
   0  13  -9 1873.69 103.177   3
   0  13  -9 1525.65 123.164   8
   0  13  -7 12519.1 423.588   8
   0 -13  -7 14280.2 367.424   5
   0  13  -5 9973.10 303.352   1
   0 -13  -5 4443.09 97.6788   7
   0  13  -5 6514.91 286.257   8
   0 -13  -5 8247.60 236.581   5
   0  13  -3 994.034 46.8596   4
   0  13  -3 1207.91 103.479   1
   0  13  -3 937.332 54.6490   2
   0 -13  -3 899.975 47.2616   7
   0 -13  -3 1159.70 86.1005   5
   0  13  -1 13847.1 312.617   4
   0 -13  -1 13800.8 290.835   7
   0  13   1 13597.5 370.754   1
   0 -13   1 14683.6 355.620   5
   0  13   3 1161.24 62.7737   2
   0 -13   3 1381.34 90.7895   5
   0 -13   5 7970.63 223.051   7
   0 -13   5 8001.36 238.080   5
   0 -13   7 14577.0 334.444   7
   0 -13   7 13785.1 334.592   5
   0  13   9 2333.36 136.640   1
   0 -13   9 2050.69 111.901   7
   0 -13  11 2364.35 87.2210   2
   0 -13  11 2706.56 134.464   7
   0 -13  11 2475.17 121.829   5
   0 -13  13 7483.33 183.283   2
   0 -13  13 7759.34 228.821   5
   0 -13  15 2164.41 84.9898   2
   0 -13  15 2044.91 106.523   5
   0 -13  17 646.170 46.9183   2
   0  13  17 658.091 62.7532   1
   0 -13  17 591.979 56.8675   5
   0  14 -16 4594.77 216.423   8
   0 -14 -16 5080.33 182.653   5
   0  14 -14 960.239 99.0409   8
   0 -14 -14 1023.39 82.0606   5
   0  14 -12 1747.43 131.708   8
   0 -14 -12 2065.01 119.368   5
   0  14 -10 13954.4 481.130   1
   0  14 -10 14253.5 347.113   3
   0 -14 -10 13289.5 353.613   5
   0  14  -8 4494.16 162.670   3
   0  14  -8 5466.25 255.797   1
   0  14  -6 1873.83 160.349   8
   0 -14  -6 2096.69 124.759   5
   0  14  -4 9813.63 380.630   8
   0 -14  -4 9232.37 199.064   7
   0  14  -2 9823.51 218.350   4
   0  14  -2 9388.36 218.533   2
   0 -14  -2 8330.72 205.847   7
   0 -14  -2 10828.9 300.074   5
   0  14   0 2709.06 121.951   4
   0  14   0 3482.12 173.118   1
   0 -14   0 2856.67 109.474   7
   0 -14   0 3283.82 151.647   5
   0  14   2 10414.1 313.717   1
   0 -14   2 9960.31 246.175   7
   0 -14   2 10344.5 290.511   5
   0 -14   4 13380.0 342.481   5
   0 -14   6 2197.22 119.295   5
   0 -14   8 3777.96 155.657   7
   0 -14   8 3755.77 156.937   5
   0 -14  10 12912.0 334.015   7
   0 -14  10 12217.0 318.691   5
   0 -14  12 1577.28 69.5590   2
   0 -14  12 1856.72 106.493   5
   0 -14  14 876.744 51.8431   2
   0 -14  14 847.796 71.2516   5
   0 -14  16 4629.12 134.352   2
   0 -14  16 4787.55 176.131   5
   0 -14  18 1770.43 100.709   5
   0 -15 -15 706.079 71.2541   5
   0  15 -13 2750.00 169.823   8
   0 -15 -13 3118.02 154.887   5
   0  15 -11 1011.56 86.6817   3
   0  15 -11 843.552 98.7368   8
   0 -15 -11 888.559 83.2948   5
   0  15  -9 1862.93 108.234   3
   0  15  -9 1644.96 137.451   8
   0 -15  -9 1804.41 119.299   5
   0  15  -7 4459.98 245.514   8
   0 -15  -7 4546.03 198.699   5
   0  15  -5 2156.55 173.952   8
   0 -15  -5 2622.23 145.194   5
   0  15  -3 2020.65 68.5748   4
   0  15  -3 2055.98 87.4269   2
   0  15  -3 2415.52 161.983   1
   0 -15  -3 2310.65 133.289   5
   0  15  -1 5821.82 172.684   4
   0  15  -1 5505.46 158.499   2
   0  15  -1 7541.88 271.530   1
   0 -15  -1 5132.99 157.066   7
   0 -15  -1 6853.87 233.187   5
   0  15   1 5473.29 195.717   4
   0  15   1 5515.00 160.540   2
   0  15   1 6546.40 252.821   1
   0 -15   1 5677.80 174.336   7
   0 -15   1 6419.54 225.405   5
   0  15   3 2632.82 154.171   1
   0 -15   3 2276.52 108.476   7
   0 -15   3 2432.11 131.523   5
   0  15   5 2379.64 151.541   4
   0 -15   5 2709.21 125.171   7
   0 -15   5 2833.09 140.980   5
   0 -15   7 5243.79 198.008   5
   0  15  11 1131.05 98.9350   1
   0  15  11 841.317 110.693   4
   0 -15  11 864.751 76.0848   5
   0  15  13 3443.12 169.777   1
   0  15  13 2296.98 188.146   4
   0  15  15 912.347 86.1991   1
   0 -15  15 708.354 46.0229   2
   0  16 -12 88.6937 43.0352   8
   0 -16 -12 115.381 39.8428   5
   0  16 -10 1179.06 87.4348   3
   0  16 -10 879.031 101.346   8
   0 -16 -10 995.314 93.2638   5
   0  16  -8 66.4335 26.5877   3
   0  16  -8 36.1745 47.1943   1
   0  16  -8 43.1288 40.1137   8
   0 -16  -8 36.1026 32.3677   5
   0  16  -6 1297.18 129.773   1
   0  16  -6 984.184 121.718   8
   0 -16  -6 1098.74 97.1723   5
   0  16  -4 337.072 15.5410   4
   0  16  -4 399.340 19.3201   4
   0  16  -4 488.293 82.3233   1
   0  16  -4 358.638 79.2436   8
   0 -16  -4 484.792 66.4270   5
   0 -16  -4 294.229 26.2325   7
   0  16  -2 108.856 23.0348   2
   0  16  -2 109.327 47.9841   1
   0  16  -2 98.3878 21.0177   4
   0 -16  -2 138.034 40.2585   5
   0 -16  -2 77.8694 20.0749   7
   0  16   0 1934.45 99.7545   4
   0  16   0 1707.14 83.9640   2
   0 -16   0 1835.99 91.7439   7
   0  16   2 93.0152 23.1124   2
   0  16   2 109.733 43.6190   1
   0 -16   2 109.875 28.5234   7
   0 -16   2 128.649 36.7916   5
   0  16   4 430.843 63.9104   4
   0  16   4 477.141 45.9788   2
   0 -16   4 483.094 53.2823   7
   0 -16   4 520.728 64.1056   5
   0 -16   6 1069.17 81.8610   7
   0  16   6 1155.56 106.624   1
   0  16   6 1091.39 70.6778   2
   0  16   8 20.0914 36.3825   4
   0  16   8 69.5968 37.6777   1
   0 -16   8 44.0597 26.6545   7
   0  16  12 96.8577 41.4509   1
   0  16  14 53.3478 37.0502   1
   0  16  16 507.070 69.1185   1
   0  17 -11 319.964 52.9233   3
   0  17  -9 115.933 67.1443   1
   0  17  -9 73.6611 29.7396   3
   0  17  -9 112.792 48.3539   8
   0  17  -7 855.632 110.886   8
   0  17  -5 546.044 91.8657   1
   0  17  -5 360.297 81.2752   8
   0  17  -3 31.9088 12.1802   4
   0  17  -3 10.4393 16.4455   2
   0  17  -3 17.4381 34.2392   1
   0  17  -3 17.6293 45.9729   8
   0 -17  -3 26.8894 15.5186   7
   0  17  -1 302.645 35.9846   4
   0 -17  -1 294.254 36.0470   7
   0  17  -1 274.806 36.1037   2
   0 -17   1 434.508 48.2131   7
   0  17   1 324.081 39.2801   2
   0  17   1 501.653 82.8129   1
   0  17   3 4.28073 23.8717   4
   0 -17   3 17.3338 22.5064   7
   0  17   3 11.1152 18.4199   2
   0  17   3 3.01841 35.8633   1
   0  17   5 332.236 61.3068   4
   0 -17   5 384.437 51.2708   7
   0  17   5 346.769 42.5756   2
   0  17   7 989.904 105.613   4
   0 -17   7 1083.43 86.9336   7
   0  17   7 1293.38 118.529   1
   0  17   9 99.6257 46.8388   4
   0  17   9 100.494 47.2508   1
   0  17  11 108.383 50.6893   4
   0  17  11 251.271 59.3170   1
   0  17  13 1200.58 110.311   1
   0  17  15 345.588 66.2552   1
   0  18 -10 590.181 64.4038   3
   0  18  -8 2003.86 110.365   3
   0  18  -6 9044.10 373.071   1
   0  18  -6 6116.88 322.762   8
   0  18  -4 262.716 78.0334   8
   0 -18  -4 328.753 25.3956   7
   0  18  -2 1286.10 60.0915   4
   0 -18  -2 1141.41 65.9482   7
   0  18  -2 1337.80 76.2910   2
   0 -18   0 9504.40 249.740   7
   0  18   0 9377.31 242.956   2
   0 -18   2 1337.64 86.0769   7
   0  18   2 1162.46 73.4278   2
   0  18   4 358.005 59.8463   4
   0 -18   4 378.103 51.4635   7
   0  18   4 311.190 41.3856   2
   0  18   6 6115.31 264.888   4
   0 -18   6 6760.97 231.604   7
   0  18   8 2345.96 165.075   1
   0  18   8 1531.34 137.460   4
   0  18  10 564.244 86.4903   1
   0  18  10 359.365 77.4307   4
   0  18  12 2963.32 186.014   1
   0  18  14 1491.27 132.058   1
   0  19  -3 2186.26 58.6952   4
   0  19  -3 1969.09 51.1217   4
   0  19  -3 1951.04 189.289   8
   0 -19  -3 2054.14 80.5727   7
   0  19  -1 1541.59 75.1843   4
   0 -19  -1 1482.56 81.9013   7
   0  19  -1 1599.56 87.6661   2
   0 -19   1 1666.55 96.1761   7
   0  19   1 1521.26 87.6663   2
   0  19   3 2453.87 135.830   4
   0 -19   3 2694.23 129.545   7
   0  19   3 2357.16 110.653   2
   0  19   5 2309.47 147.128   4
   0 -19   5 2481.67 131.242   7
   0  19   7 1058.34 121.361   1
   0  19   7 845.516 98.1047   4
   0  19   9 2921.07 195.546   1
   0  19   9 1968.25 158.624   4
   0  19  11 3512.64 213.719   1
   0  19  13 305.066 73.7587   1
   0  20  -2 1533.39 87.2751   2
   0  20  -2 1462.50 56.7402   4
   0 -20  -2 1304.40 71.2265   7
   0 -20   0 7556.42 218.791   7
   0  20   0 7244.97 212.091   2
   0  20   2 1440.92 93.0686   4
   0 -20   2 1467.04 95.2230   7
   0  20   4 409.232 60.8124   4
   0 -20   4 387.216 54.9338   7
   0  20   6 4847.10 226.927   4
   0  20   8 2440.69 170.910   4
   0  21   1 819.858 62.5995   4
   0  21   3 36.6654 28.4388   4
   0 -21   3 22.0219 27.6458   7
   0  21   5 608.520 73.8625   4
   0  21   7 775.669 92.5664   4
   0  22   6 95.0814 42.5957   4
  -1   0  -7 8185.26 177.648   7
  -1   0  -5 6977.01 143.765   7
  -1   0  -3 4529.72 112.199   4
  -1   0  -3 4758.01 96.2709   7
   1   0   3 4182.48 103.134   4
  -1   0   3 4488.26 89.5908   8
  -1   0   3 4373.58 89.0265   6
   1   0   5 5737.39 135.784   4
  -1   0   5 6389.75 92.4400   6
   1   0   7 6378.54 167.140   4
  -1   0   7 6041.65 130.044   8
   1   0   9 6458.81 194.906   4
  -1   0   9 7726.83 161.995   8
   1   0   9 8594.79 180.468   7
   1   0   9 7642.04 203.094   9
  -1   0   9 6935.31 162.267   7
  -1   0   9 5164.99 124.141   1
   1   0  11 8572.13 253.441   4
  -1   0  11 9241.61 219.874   7
  -1   0  11 9125.88 213.743   8
   1   0  11 10964.1 239.510   7
   1   0  11 10262.9 274.246   9
   1   0  11 11156.1 244.921   1
   1   0  13 1842.24 106.703   4
   1   0  13 2422.88 126.901   9
   1   0  13 2133.40 86.2982   8
   1   0  13 2421.48 103.897   7
  -1   0  13 2147.69 88.6893   8
  -1   0  13 2214.88 94.9426   7
  -1   0  13 1742.86 65.6888   1
   1   0  15 2367.11 128.723   4
  -1   0  15 3003.62 88.0422   1
   1   0  15 2352.07 132.016   3
   1   0  15 2724.70 108.253   1
   1   0  15 2614.85 104.325   8
  -1   0  15 2593.40 108.677   8
   1   0  15 3251.46 158.167   9
   1   0  15 3280.47 132.372   7
  -1   0  17 6942.37 148.595   1
   1   0  17 6682.24 183.929   1
   1   0  17 6232.34 241.098   3
   1   0  17 6497.92 195.362   8
  -1   0  17 7262.67 211.525   7
  -1   0  17 6573.85 202.209   8
  -1   0  19 9.46656 19.8972   4
   1   0  19 12.7868 19.4786   4
   1   0  19 15.9960 14.1106   1
   1   0  19 9.12706 17.0699   8
   1   0  19 11.7911 22.3586   7
  -1   0  19 8.52501 23.2737   7
   1   0  21 1056.83 91.3072   4
  -1   0  21 885.873 88.0592   4
   1   0  21 927.940 92.6220   3
  -1   0  21 875.958 87.2310   3
   1   0  21 1122.73 64.2213   1
  -1   0  21 1371.28 96.2687   7
   1   0  21 1310.95 101.908   7
   1   0  23 3181.07 162.223   4
  -1   0  23 3132.66 167.507   4
  -1   0  23 2722.41 159.011   3
   1   0  23 2906.37 169.048   3
   1   1  -8 13637.3 323.129   9
  -1  -1  -8 15859.0 289.720   7
  -1   1  -6 18601.9 193.067   7
  -1  -1  -6 18189.3 171.081   7
   1  -1  -6 15263.0 215.921   9
   1   1  -6 15969.1 220.054   9
  -1   1  -4 164.855 20.1080   4
  -1  -1  -4 172.558 14.1744   7
  -1   1  -4 216.357 18.2355   7
   1  -1  -4 160.193 19.3610   9
   1   1  -4 144.710 18.4330   9
   1   1   4 94.8916 18.1347   4
   1  -1   4 127.262 14.7349   4
   1  -1   4 96.9614 16.7193   3
   1  -1   4 115.180 14.5805   7
  -1  -1   4 117.167 15.5344   8
   1  -1   4 108.166 11.1777   8
   1  -1   4 94.7491 8.83576   5
   1   1   4 124.358 12.9606   7
  -1   1   4 92.2346 7.62190   5
   1   1   6 15611.8 362.496   4
   1  -1   6 18915.6 352.585   4
  -1  -1   6 12339.3 303.625   1
   1  -1   6 19383.6 371.562   3
   1  -1   6 19413.1 323.560   8
   1  -1   6 21806.8 345.270   7
  -1  -1   6 20252.0 338.201   8
   1   1   6 21917.8 335.197   7
   1  -1   6 23300.0 307.108   6
   1   1   8 13103.1 293.121   4
   1  -1   8 14972.5 277.804   4
   1  -1   8 16587.1 304.885   3
  -1  -1   8 9574.08 204.987   1
  -1   1   8 5166.83 175.154   1
   1  -1   8 7702.80 228.893   1
   1   1   8 15397.0 293.107   9
  -1   1   8 14671.9 235.800   7
  -1  -1   8 17540.4 257.020   8
   1  -1   8 15616.2 290.472   9
   1  -1   8 18399.3 270.584   7
   1  -1   8 16357.0 239.648   8
   1   1   8 19994.8 266.755   7
   1  -1   8 20812.8 214.763   6
   1   1  10 4318.45 171.118   4
   1  -1  10 5037.83 162.181   4
   1  -1  10 5710.24 138.081   8
  -1  -1  10 5580.49 144.963   8
   1  -1  10 6007.83 181.281   9
  -1  -1  10 5476.75 147.856   7
  -1   1  10 5451.80 138.818   7
   1   1  10 6413.65 153.776   7
   1   1  10 6021.42 184.958   9
   1  -1  10 6394.64 160.940   7
  -1  -1  10 4266.67 118.049   1
   1  -1  10 5208.03 175.592   3
   1  -1  10 5987.18 159.542   1
  -1   1  10 3960.91 99.1787   1
   1  -1  12 5597.18 182.761   4
   1   1  12 5054.86 195.428   4
   1  -1  12 6518.48 160.696   8
   1  -1  12 6696.08 184.194   7
  -1  -1  12 6153.01 167.094   8
  -1  -1  12 6597.78 173.615   7
   1  -1  12 7288.80 218.683   9
   1   1  12 7558.33 182.207   7
   1   1  12 7366.20 222.388   9
  -1   1  12 6248.91 162.766   7
  -1   1  12 4062.57 110.277   1
   1  -1  12 5986.61 200.294   3
   1  -1  14 3426.23 144.739   4
   1   1  14 2909.93 147.195   4
  -1  -1  14 3489.93 129.588   8
   1  -1  14 3453.42 120.945   8
   1   1  14 4039.74 173.928   9
  -1   1  14 3316.69 115.855   8
  -1  -1  14 3476.42 129.751   7
   1  -1  14 4257.22 171.975   9
   1  -1  14 3952.09 144.047   7
  -1  -1  14 3920.59 108.132   1
   1  -1  14 2852.16 111.651   1
  -1   1  14 2815.33 82.0867   1
   1   1  14 3426.54 123.472   1
   1  -1  14 3463.16 154.579   3
   1   1  16 3175.49 161.723   4
  -1   1  16 3166.94 85.4569   1
   1  -1  16 3419.39 161.514   3
   1  -1  16 3817.47 128.858   1
   1   1  16 4003.47 134.094   1
  -1  -1  16 3810.90 105.757   1
   1   1  16 4443.02 195.932   9
   1   1  16 3687.57 128.479   8
  -1  -1  16 3848.37 145.090   8
   1  -1  16 4525.99 193.136   9
  -1   1  16 3731.95 133.065   8
  -1   1  16 4246.59 144.818   7
   1  -1  16 4458.26 162.832   7
   1  -1  16 3619.64 137.413   8
  -1  -1  18 343.410 53.6201   4
   1  -1  18 361.392 51.0999   4
   1   1  18 327.079 54.9342   3
   1   1  18 402.629 38.8184   1
   1  -1  18 408.014 40.5672   1
  -1  -1  18 328.248 49.9447   3
  -1   1  18 380.295 45.3370   8
   1   1  18 467.289 71.1421   9
  -1  -1  18 476.093 54.3697   7
   1   1  18 352.903 42.1326   8
   1  -1  18 482.948 52.0017   8
   1  -1  18 486.707 70.9600   9
  -1  -1  18 360.070 48.4147   8
  -1   1  18 486.168 53.1653   7
   1   1  18 498.401 58.3888   7
  -1  -1  20 392.454 57.2963   4
  -1   1  20 327.408 57.3231   4
   1  -1  20 488.704 59.2336   4
   1   1  20 420.010 62.5820   4
  -1  -1  20 427.220 60.8740   3
   1  -1  20 519.704 45.4302   1
   1   1  20 491.832 41.4806   1
   1  -1  20 388.276 60.0623   3
  -1  -1  20 564.234 63.5527   7
  -1   1  20 521.455 58.8294   7
   1  -1  20 566.715 69.4064   7
   1   1  20 584.320 67.0289   7
   1  -1  22 1115.77 101.179   3
  -1   1  22 950.002 93.7960   3
   1   1  22 1677.47 77.7219   1
  -1  -1  22 1048.11 93.1422   3
   1   1  22 1131.49 106.724   3
   1  -1  22 1770.78 87.8784   1
   1  -1  22 1349.83 99.0106   4
  -1   1  22 994.021 98.5053   4
   1   1  22 1270.85 105.839   4
  -1  -1  22 1189.53 98.4376   4
   1   1  22 1568.08 115.027   7
  -1   1  22 1631.30 109.060   7
   1  -1  24 23.4383 23.7993   4
  -1  -1  24 4.68335 20.4231   4
  -1   1  24 22.4304 30.5690   4
   1   1  24 20.7104 28.2260   4
  -1  -1  24 5.08649 23.0717   3
  -1  -2  -9 544.523 38.0464   7
   1   2  -9 457.129 48.0935   9
  -1  -2  -7 6426.90 109.603   7
   1   2  -7 5880.39 147.342   9
  -1   2  -5 1142.86 54.4922   4
  -1   2  -5 1148.86 64.8064   3
   1   2  -5 879.415 41.7273   1
   1  -2  -5 899.482 50.6971   9
  -1  -2  -5 1211.86 40.2959   7
  -1   2  -5 1278.67 46.8831   8
   1  -2  -5 1005.52 33.0155   5
  -1   2  -5 1047.89 37.1356   5
  -1   2  -3 5394.12 108.779   3
  -1   2  -3 5496.44 90.7472   8
   1  -2  -3 5210.54 75.9321   5
  -1   2  -3 5680.62 80.4295   5
  -1  -2  -1 894.479 40.0140   4
   1  -2  -1 1072.58 34.4639   5
  -1  -2   1 933.402 26.7519   4
  -1  -2   3 5635.10 106.713   3
  -1  -2   3 6170.13 155.407   8
   1  -2   3 6060.32 133.944   8
   1  -2   3 5794.77 123.210   7
  -1   2   3 5813.15 110.419   5
   1  -2   5 1220.31 46.1606   4
   1  -2   5 1079.85 56.0235   3
   1  -2   5 1128.32 49.7332   8
   1  -2   5 1207.53 51.6359   7
  -1  -2   5 1313.69 60.5181   8
  -1   2   5 1214.72 35.7932   5
   1   2   5 1128.18 42.8645   7
   1  -2   5 1250.35 39.6313   5
   1  -2   7 7428.50 163.982   4
   1   2   7 5107.51 183.350   4
   1  -2   7 6832.66 179.327   3
  -1  -2   7 7539.00 173.022   8
   1  -2   7 7086.69 156.055   8
   1  -2   7 7355.35 166.783   7
  -1   2   7 6528.74 137.365   7
   1  -2   7 6767.40 173.438   9
   1   2   7 6541.11 178.414   9
   1  -2   7 8235.30 131.764   5
   1   2   7 7988.44 152.899   7
  -1   2   7 6403.53 119.409   5
   1  -2   9 644.521 46.8044   4
   1   2   9 455.163 54.7795   4
  -1  -2   9 710.293 41.6281   1
   1  -2   9 626.776 52.9183   3
   1  -2   9 706.836 48.4359   7
  -1   2   9 702.809 38.7198   7
   1   2   9 696.562 57.1991   9
   1  -2   9 639.967 42.3676   8
   1  -2   9 613.469 51.3805   9
  -1  -2   9 594.684 44.9801   8
   1  -2   9 797.913 29.7592   5
   1   2   9 720.101 43.4027   7
   1   2  11 347.661 48.9294   4
   1  -2  11 128.227 24.6504   4
   1  -2  11 80.7223 20.0194   1
   1  -2  11 141.714 29.8716   3
   1  -2  11 117.226 21.2696   8
   1  -2  11 139.100 30.1967   9
  -1   2  11 131.721 20.3261   7
   1   2  11 135.747 32.1243   9
  -1  -2  11 326.475 35.1912   7
  -1  -2  11 124.202 23.7689   8
   1  -2  11 126.362 24.1547   7
   1   2  11 173.093 25.1374   7
   1  -2  13 4130.69 147.139   4
   1   2  13 3151.53 159.274   4
  -1  -2  13 4474.06 144.453   7
   1  -2  13 4713.26 176.057   9
   1   2  13 4964.66 186.477   9
   1  -2  13 4592.89 153.873   7
   1  -2  13 4565.15 140.058   8
  -1  -2  13 4134.38 142.383   8
  -1  -2  13 4096.17 117.992   1
  -1   2  13 3003.42 80.3132   1
   1  -2  13 3891.99 156.896   3
   1   2  15 109.225 34.1040   4
   1   2  15 118.487 24.8387   1
   1  -2  15 86.8743 28.6121   3
  -1   2  15 112.027 13.9390   1
  -1  -2  15 128.633 19.6928   1
   1  -2  15 113.559 23.7022   1
   1   2  15 147.062 38.5530   9
  -1  -2  15 156.446 30.2635   7
  -1  -2  15 101.282 26.6223   8
   1  -2  15 197.308 35.0527   7
  -1   2  15 150.150 27.3201   7
   1  -2  15 118.003 26.5039   8
  -1  -2  17 369.855 50.7958   4
   1  -2  17 359.099 46.8236   4
   1   2  17 334.538 55.2796   4
  -1  -2  17 360.601 33.4176   1
   1   2  17 414.313 41.9350   1
   1  -2  17 375.939 39.8895   1
  -1  -2  17 338.777 48.4786   3
  -1   2  17 318.831 39.1697   8
   1   2  17 406.385 64.3781   9
   1  -2  17 430.221 53.5727   7
   1  -2  17 327.869 44.3661   8
   1  -2  17 438.086 63.0431   9
  -1   2  17 399.865 45.1199   7
  -1  -2  17 316.274 45.6178   8
   1   2  17 433.789 51.4091   7
  -1  -2  19 840.623 76.7862   4
   1  -2  19 1014.67 78.6160   4
   1  -2  19 891.638 62.9292   1
  -1  -2  19 885.258 79.5208   3
   1  -2  19 869.425 82.7051   3
   1   2  19 997.721 59.1303   1
   1  -2  19 1176.05 93.2961   7
   1  -2  19 855.492 74.6784   8
  -1   2  19 1155.07 80.3376   7
  -1  -2  19 1085.08 82.3637   7
   1   2  19 1296.18 92.3889   7
   1   2  21 294.543 30.7529   1
   1  -2  21 329.815 42.6319   1
   1  -2  21 299.623 53.4442   3
  -1  -2  21 247.295 45.5604   3
   1   2  21 207.357 48.3694   4
  -1  -2  21 246.558 44.1385   4
   1  -2  21 289.101 44.7592   4
  -1   2  21 238.812 53.7093   4
   1   2  21 307.823 55.1015   7
  -1   2  21 356.472 51.5794   7
  -1   2  23 395.994 65.6908   3
  -1  -2  23 384.754 58.0028   3
   1  -2  23 417.903 62.9978   3
   1  -2  23 472.098 57.6590   4
   1   2  23 537.449 73.3295   4
  -1   2  23 457.011 70.3890   4
  -1  -2  23 507.078 60.8029   4
   1  -2  25 68.2335 29.2975   4
  -1  -2  25 84.1127 30.1841   4
   1   3 -10 3654.27 141.414   9
   1  -3 -10 3118.11 73.1907   6
   1   3  -8 765.141 56.8244   9
   1  -3  -8 679.827 54.2507   9
   1  -3  -8 803.873 31.0452   5
   1   3  -6 76.8144 16.9898   1
  -1  -3  -6 88.3726 11.3243   7
   1   3  -6 85.9551 18.3578   9
  -1   3  -6 82.5725 15.4275   8
   1  -3  -6 77.2001 18.0123   9
   1  -3  -6 93.2703 11.3504   5
  -1   3  -4 2758.68 83.4053   3
   1   3  -4 2584.17 70.9415   9
  -1   3  -4 2704.34 62.9623   5
   1  -3  -4 2635.46 57.0370   5
  -1   3  -2 1050.99 37.3977   7
  -1   3  -2 1056.78 53.5346   8
   1  -3  -2 1049.47 38.0328   5
   1  -3   0 834.641 37.8443   1
  -1   3   0 872.753 42.3314   1
  -1   3   0 793.088 29.4512   2
  -1  -3   0 814.519 36.2522   4
   1  -3   2 1175.33 42.9712   7
   1  -3   2 1119.55 43.0166   5
  -1  -3   4 3028.85 115.021   8
   1  -3   4 3042.97 98.3434   8
   1  -3   4 2836.59 62.2563   5
   1  -3   6 109.155 19.6454   3
   1  -3   6 148.754 15.4851   4
   1  -3   6 76.5295 18.2703   1
  -1  -3   6 113.832 16.4799   3
   1  -3   6 148.487 21.5469   7
  -1  -3   6 137.661 25.7610   8
  -1   3   6 122.587 11.5215   7
   1   3   6 154.060 22.7904   9
   1  -3   6 111.874 19.1432   9
   1  -3   6 144.109 15.5757   5
  -1   3   6 115.303 12.9015   5
   1   3   6 126.730 14.9916   7
   1   3   8 627.264 63.9548   4
   1  -3   8 1064.80 50.4945   4
   1  -3   8 918.051 59.7872   3
   1  -3   8 532.698 44.2556   1
  -1  -3   8 880.433 51.2180   3
   1  -3   8 1124.32 61.1139   8
   1   3   8 859.721 60.9144   9
   1  -3   8 955.600 57.4126   7
  -1  -3   8 1078.05 66.4560   8
  -1   3   8 1025.26 41.1474   7
   1  -3   8 797.265 57.1728   9
   1   3   8 1105.25 49.5500   7
   1  -3   8 1046.42 40.6454   5
   1  -3  10 4267.13 126.823   4
   1  -3  10 3873.11 140.736   3
  -1  -3  10 3674.81 114.466   1
   1  -3  10 3406.66 123.400   1
  -1  -3  10 4002.38 130.881   3
   1   3  10 4175.56 159.035   9
   1  -3  10 4379.98 152.225   9
  -1  -3  10 4371.48 148.775   8
   1  -3  10 4380.18 138.438   8
   1  -3  10 4003.90 135.717   7
  -1   3  10 4399.52 112.106   7
  -1  -3  10 4090.81 133.415   7
   1   3  10 4711.82 124.556   7
   1   3  12 267.597 47.1915   4
   1  -3  12 386.551 46.1600   3
  -1  -3  12 379.047 42.4475   3
   1  -3  12 408.592 43.2284   7
  -1  -3  12 411.894 46.8050   8
  -1  -3  12 457.303 43.8602   7
   1  -3  12 402.603 41.9702   8
   1  -3  12 471.985 53.2211   9
   1   3  12 411.043 53.0684   9
  -1  -3  12 372.021 21.5136   5
  -1  -3  14 1642.55 71.7380   1
   1  -3  14 1574.83 97.3768   3
  -1  -3  14 1769.70 92.8350   7
  -1  -3  14 1667.00 99.4458   8
   1  -3  14 1735.61 93.8455   8
   1  -3  14 1795.67 109.348   9
   1   3  14 1975.33 120.727   9
  -1   3  14 1798.00 80.6778   7
   1  -3  14 1682.79 94.8039   7
   1   3  14 1810.63 87.8721   7
  -1  -3  14 1608.96 42.4366   5
   1   3  16 855.512 87.5615   4
  -1  -3  16 1047.32 78.3890   4
   1  -3  16 1128.92 75.7809   4
   1  -3  16 1140.29 69.3211   1
  -1  -3  16 1012.49 76.6945   3
  -1  -3  16 1013.06 58.2500   1
   1   3  16 1225.44 73.5141   1
  -1   3  16 1348.15 75.0569   7
   1  -3  16 1171.59 83.3034   8
   1   3  16 1370.80 109.214   9
  -1  -3  16 1190.76 89.5807   8
   1  -3  16 1235.30 87.7922   7
  -1  -3  16 1290.48 83.8452   7
   1  -3  16 1386.57 103.569   9
   1   3  16 1502.97 86.6075   7
  -1  -3  18 494.127 55.2922   4
  -1   3  18 453.835 73.2580   4
   1  -3  18 623.140 57.6991   4
   1   3  18 513.781 71.7018   4
   1  -3  18 660.142 68.2591   3
   1   3  18 604.158 50.4418   1
   1  -3  18 590.881 51.5077   1
  -1  -3  18 552.345 61.7397   3
  -1   3  18 696.772 60.3065   7
   1  -3  18 706.755 80.3725   9
  -1   3  18 541.285 50.9616   8
   1  -3  18 645.119 68.3967   8
   1   3  18 739.769 87.9198   9
  -1  -3  18 678.840 71.9116   8
   1   3  18 749.039 69.4052   7
  -1  -3  20 2138.58 118.757   4
   1  -3  20 2158.39 113.096   4
   1  -3  20 1950.30 125.055   3
   1  -3  20 2796.17 122.811   1
  -1  -3  20 1782.49 114.089   3
  -1  -3  20 2483.15 132.354   7
   1   3  20 2730.87 141.730   7
  -1   3  20 2633.42 126.246   7
   1  -3  22 66.5124 33.3221   3
  -1  -3  22 54.1436 26.2732   3
   1   3  22 82.4248 18.9605   1
   1  -3  22 87.9917 25.2325   1
  -1  -3  22 75.1587 28.5711   4
  -1   3  22 22.0172 31.9499   4
   1  -3  22 50.4351 23.8570   4
   1   3  22 49.8777 34.8009   4
   1   3  22 105.080 39.0812   7
  -1   3  22 79.8503 32.0754   7
  -1  -3  24 119.017 38.2736   3
   1  -3  24 135.375 39.6105   3
  -1  -3  24 113.086 33.0851   4
   1  -3  24 114.872 31.2353   4
   1  -4 -13 3143.86 74.6397   6
   1   4 -11 1800.48 112.872   1
   1   4  -9 8791.35 227.129   9
   1  -4  -9 8951.61 152.613   5
  -1   4  -7 2919.88 118.995   3
   1   4  -7 1772.96 84.3405   1
  -1  -4  -7 2751.47 65.9038   7
   1  -4  -7 1875.90 87.1988   9
   1   4  -7 2399.01 95.7398   9
  -1   4  -7 2872.37 94.5280   8
   1  -4  -7 2756.77 68.6387   5
  -1   4  -5 6136.57 149.988   3
   1   4  -5 6596.02 143.142   1
   1  -4  -5 3857.39 115.647   9
   1   4  -5 4703.15 124.037   9
  -1   4  -5 4828.62 134.786   8
   1  -4  -5 5682.46 112.046   5
  -1  -4  -5 4969.97 90.8666   7
  -1   4  -3 27227.5 549.446   8
   1   4  -3 31652.2 496.283   9
   1  -4  -3 26129.2 491.499   9
  -1   4  -3 32810.9 508.646   5
   1  -4  -3 34814.5 507.848   5
  -1   4  -1 4855.25 90.2568   2
   1   4  -1 4565.16 83.4547   4
   1  -4  -1 4718.49 103.001   5
  -1   4   1 4609.60 96.5724   2
  -1   4   1 4015.14 108.478   1
  -1  -4   1 4653.92 103.176   4
   1   4   1 3914.73 114.357   4
   1  -4   1 4506.21 109.698   5
  -1   4   1 4533.25 108.142   5
   1  -4   3 28969.0 466.112   7
   1  -4   3 28458.6 467.539   5
  -1  -4   5 5648.89 83.6572   4
   1  -4   5 3422.42 84.0320   4
   1  -4   5 4835.46 127.999   7
  -1  -4   5 6170.90 199.873   8
   1  -4   5 6042.73 185.417   8
   1  -4   5 4572.35 114.248   5
   1  -4   7 2506.33 67.9398   4
  -1  -4   7 2531.97 80.4660   3
   1  -4   7 2395.19 93.9762   1
   1  -4   7 2875.38 117.888   8
   1  -4   7 2342.01 90.5276   9
  -1  -4   7 2805.04 133.199   8
   1  -4   7 2328.83 92.1484   7
  -1   4   7 2600.31 59.5923   7
   1   4   7 2197.11 96.2858   9
   1  -4   7 2337.11 74.8804   5
   1  -4   9 10093.2 199.576   4
   1  -4   9 9364.86 234.843   3
  -1  -4   9 9082.99 213.087   3
   1  -4   9 9638.66 230.467   1
  -1  -4   9 9060.61 208.700   1
  -1  -4   9 10673.3 279.734   8
   1  -4   9 10630.4 259.658   8
  -1   4   9 10684.2 189.148   7
   1   4   9 9539.72 257.238   9
   1  -4   9 9519.45 240.904   9
   1  -4   9 9311.91 233.851   7
   1  -4   9 9416.32 191.544   5
   1   4   9 10103.8 205.848   7
   1  -4  11 6501.61 196.122   3
  -1  -4  11 6177.69 176.097   3
  -1  -4  11 5844.29 159.798   1
   1  -4  11 6518.39 180.964   1
   1  -4  11 6773.41 195.415   7
  -1  -4  11 7084.41 191.325   7
   1  -4  11 6879.05 205.360   8
  -1  -4  11 7430.72 224.557   8
   1  -4  11 7027.31 208.366   9
   1   4  11 7112.47 224.183   9
   1  -4  13 3760.38 124.497   4
   1  -4  13 3498.38 144.883   3
  -1  -4  13 3247.45 129.628   4
  -1  -4  13 3593.55 118.027   1
   1   4  13 4018.39 177.101   9
   1  -4  13 3919.28 153.134   8
  -1  -4  13 3881.62 162.230   8
  -1  -4  13 3938.61 144.690   7
  -1   4  13 4102.22 118.090   7
   1  -4  13 3696.63 144.859   7
   1  -4  13 3934.78 159.816   9
   1   4  13 4311.08 134.849   7
   1  -4  13 4103.35 98.5301   5
  -1  -4  13 3555.33 92.0946   5
   1   4  15 586.225 75.8340   4
   1  -4  15 826.076 58.1712   4
  -1  -4  15 705.519 59.1930   4
  -1  -4  15 742.486 61.6813   3
   1  -4  15 743.288 58.0505   1
  -1  -4  15 729.194 51.3838   1
  -1  -4  15 763.444 73.5908   8
  -1  -4  15 907.111 69.7806   7
  -1   4  15 977.934 59.1831   7
   1  -4  15 800.526 69.0052   7
   1  -4  15 809.869 71.4567   8
   1  -4  15 855.139 78.6136   9
   1   4  15 924.063 89.6114   9
   1  -4  15 1078.70 40.7488   6
  -1  -4  15 754.088 31.9384   5
   1   4  15 988.146 66.5476   7
   1  -4  17 1228.95 90.5507   3
  -1  -4  17 1227.73 78.5420   4
   1  -4  17 1293.01 76.4908   4
   1   4  17 1065.41 102.578   4
   1  -4  17 1250.80 76.7329   1
  -1  -4  17 1037.67 77.9727   3
   1  -4  17 1379.30 106.681   9
  -1  -4  17 1473.34 95.2399   7
   1  -4  17 1289.42 95.4496   8
   1  -4  17 1377.05 97.7758   7
  -1  -4  17 1361.17 103.361   8
   1   4  17 1449.07 119.370   9
  -1   4  17 1564.46 83.1792   7
   1   4  17 1574.09 91.1289   7
   1  -4  19 3150.97 134.479   1
  -1  -4  19 2046.69 116.958   3
   1   4  19 2813.08 106.471   1
   1   4  19 2197.57 152.213   4
   1  -4  19 2316.57 130.838   3
  -1  -4  19 2259.36 113.746   4
   1  -4  19 2349.04 108.655   4
  -1   4  19 1959.20 152.556   4
   1   4  19 3301.71 144.800   7
  -1   4  19 2862.12 124.313   7
   1  -4  21 64.6252 23.1623   1
   1   4  21 55.7047 16.3303   1
   1  -4  21 38.9953 25.2062   3
  -1  -4  21 38.2926 25.8546   3
  -1  -4  21 44.6894 22.9697   4
   1  -4  21 34.2780 20.6136   4
  -1   4  21 95.4965 30.0259   7
   1   4  21 67.5016 32.6980   7
   1  -4  23 44.2290 27.3810   3
  -1  -4  23 37.5981 26.1352   3
   1  -4  23 44.6944 22.5765   4
  -1  -4  23 45.0673 23.3931   4
  -1   4  23 55.9508 32.6518   7
   1   4  23 69.3508 38.7616   7
  -1  -4  25 346.828 54.6034   3
  -1  -5 -14 818.067 27.9424   5
   1  -5 -14 958.682 37.7978   6
   1  -5 -12 824.105 37.5119   5
  -1  -5 -12 933.079 38.4041   5
  -1   5 -10 7068.45 190.673   8
   1  -5 -10 6194.59 137.398   5
  -1   5  -8 4172.38 155.051   3
   1   5  -8 3502.76 129.676   1
   1   5  -8 3283.76 122.249   9
  -1   5  -8 3319.01 118.599   8
   1  -5  -8 2789.47 113.466   9
  -1  -5  -8 3474.61 84.2160   7
   1  -5  -8 3819.35 96.0211   5
   1   5  -6 1701.62 76.6986   1
  -1   5  -6 1627.87 78.6307   3
   1   5  -6 1194.73 61.1138   9
  -1   5  -6 1305.37 72.0094   8
   1   5  -6 1324.92 79.8392   8
   1  -5  -6 898.292 54.1404   9
  -1  -5  -6 1138.84 35.7538   7
   1  -5  -6 1417.57 54.7818   5
   1   5  -4 4341.14 96.9772   3
  -1   5  -4 3869.92 140.707   1
  -1   5  -4 3986.99 143.304   8
   1   5  -4 3824.91 104.407   9
   1  -5  -4 4027.19 108.711   5
  -1   5  -2 6682.13 177.268   1
   1   5  -2 6501.65 116.324   2
   1  -5  -2 6224.99 148.672   5
   1   5   0 1239.53 53.7156   4
  -1   5   0 1303.77 61.9550   1
  -1   5   0 1161.99 42.6070   2
   1  -5   0 1225.45 42.2547   7
   1  -5   0 1232.59 55.3644   5
   1  -5   2 5520.71 116.601   2
   1  -5   2 5292.69 131.546   5
   1  -5   4 4272.31 127.578   1
   1  -5   4 4416.63 106.275   2
  -1  -5   4 3923.91 80.2067   2
   1  -5   4 3813.76 112.109   7
   1  -5   4 4274.47 111.506   5
  -1  -5   6 1539.20 30.6480   4
   1   5   6 668.645 66.7569   4
   1  -5   6 1434.90 97.0326   8
   1  -5   6 1103.01 56.7082   9
   1   5   6 1049.77 60.8455   9
  -1  -5   6 1324.68 102.063   8
   1  -5   6 1038.81 59.7229   7
   1  -5   6 1161.08 54.0536   5
   1  -5   8 3545.71 69.9457   4
  -1  -5   8 3046.70 97.7812   1
   1   5   8 3107.44 117.744   9
   1  -5   8 3217.19 108.807   9
   1  -5   8 3120.31 108.591   7
  -1  -5   8 3638.10 167.131   8
   1  -5   8 3714.27 155.518   8
   1  -5   8 3019.49 85.7883   5
  -1   5   8 3225.90 60.1989   7
  -1  -5  10 7088.59 181.578   3
   1  -5  10 7145.88 199.221   1
  -1  -5  10 7487.39 187.263   1
   1  -5  10 7734.52 212.323   7
   1  -5  10 8824.50 260.626   8
   1   5  10 7706.93 230.169   9
  -1  -5  10 8797.63 271.259   8
   1  -5  10 7929.70 216.024   9
   1  -5  12 747.634 43.7174   4
  -1  -5  12 626.489 46.8286   4
   1  -5  12 704.464 55.7031   1
   1   5  12 721.891 69.9534   9
  -1  -5  12 688.242 75.9500   8
  -1  -5  12 716.695 58.0458   7
   1  -5  12 692.134 60.3089   7
   1  -5  12 761.531 65.7215   9
   1  -5  12 800.180 74.1500   8
   1  -5  12 728.232 41.7222   5
   1   5  12 667.958 47.8750   7
  -1   5  12 858.850 43.9648   7
  -1  -5  12 706.041 38.7901   5
   1  -5  14 1169.68 60.3366   4
   1   5  14 776.717 88.5151   4
  -1  -5  14 955.878 66.2713   3
  -1  -5  14 1085.32 65.0033   4
   1  -5  14 1065.34 71.0333   1
  -1  -5  14 1092.62 65.5097   1
   1  -5  14 1245.09 89.5628   9
   1  -5  14 1226.91 84.3175   7
  -1  -5  14 1305.77 82.7960   7
   1  -5  14 1256.51 95.8391   8
   1   5  14 1225.13 99.1035   9
  -1  -5  14 1287.00 101.693   8
   1   5  14 1357.63 73.0017   7
  -1  -5  14 1165.31 49.0728   5
   1  -5  14 1370.78 55.9491   5
  -1   5  14 1436.23 65.9194   7
   1  -5  16 3387.05 115.440   4
   1   5  16 2556.00 167.083   4
  -1  -5  16 2913.78 128.885   3
  -1  -5  16 3161.01 122.439   4
   1  -5  16 3340.73 145.245   3
   1  -5  16 3383.43 136.564   1
   1  -5  16 3769.50 171.362   9
   1   5  16 3710.84 189.298   9
   1  -5  16 3696.03 159.938   7
  -1  -5  16 3721.12 152.900   7
   1  -5  16 3588.10 173.218   8
  -1  -5  16 3643.85 184.155   8
  -1   5  16 3848.11 125.274   7
   1   5  16 3987.01 141.619   7
  -1  -5  16 3019.43 85.1840   5
   1  -5  16 4323.47 101.830   6
  -1  -5  18 911.346 72.5784   3
   1  -5  18 1122.50 66.5484   4
  -1  -5  18 1055.38 69.3567   4
  -1   5  18 805.510 101.514   4
   1   5  18 847.275 97.7663   4
   1  -5  18 1290.34 87.2500   1
  -1  -5  18 1286.94 92.4428   7
   1  -5  18 1143.01 102.352   8
  -1  -5  18 1131.29 105.800   8
   1  -5  18 1332.41 99.1550   7
   1   5  18 1243.06 84.0494   7
  -1   5  18 1292.10 76.3043   7
   1  -5  20 1778.76 99.5219   1
   1   5  20 1326.24 66.9437   1
  -1   5  20 1005.00 113.583   4
  -1  -5  20 1103.21 84.0714   3
   1  -5  20 1389.84 78.1783   4
  -1  -5  20 1350.09 80.1507   4
   1   5  20 1177.80 116.953   4
  -1   5  20 1639.39 95.4485   7
   1   5  20 1593.86 103.426   7
   1  -5  22 899.965 66.5836   1
  -1  -5  22 664.868 67.3012   3
  -1  -5  22 736.762 59.7784   4
   1  -5  22 853.625 62.5512   4
  -1   5  22 999.031 79.7529   7
  -1  -6 -15 780.223 30.6011   5
   1  -6 -15 855.362 38.7396   6
   1  -6 -13 5295.79 128.230   5
  -1  -6 -13 5977.85 129.344   5
   1   6 -11 269.472 52.9232   1
  -1   6  -9 2000.27 110.442   3
   1   6  -9 1495.77 93.1342   1
  -1   6  -9 1294.43 76.9125   8
  -1  -6  -9 1433.61 50.8682   7
  -1  -6  -9 1714.97 67.9726   5
   1  -6  -9 1659.17 62.8484   5
   1   6  -7 12985.6 290.436   1
  -1   6  -7 13493.3 283.654   3
   1   6  -7 10794.5 246.987   9
  -1   6  -7 10102.4 261.159   8
   1  -6  -7 9173.07 234.122   9
  -1  -6  -7 9780.02 186.940   7
   1  -6  -7 11573.9 227.095   5
   1   6  -5 3510.38 95.3488   3
  -1   6  -5 3569.27 145.174   1
   1   6  -5 3651.85 124.244   1
   1   6  -5 3162.06 147.779   8
   1  -6  -5 2368.11 89.9003   9
   1   6  -5 2909.24 95.6818   9
  -1   6  -5 3223.54 132.244   8
  -1  -6  -5 2831.26 70.8272   7
   1  -6  -5 3380.38 102.413   5
  -1   6  -3 2265.31 72.1782   2
  -1   6  -3 2622.08 109.615   1
   1   6  -3 2209.22 56.2573   2
  -1   6  -3 2033.81 109.044   8
   1  -6  -3 1713.81 61.2139   9
   1   6  -3 1989.34 117.019   8
   1   6  -3 2147.61 64.4111   9
   1  -6  -3 2198.50 80.5223   5
   1   6  -1 13005.8 234.201   4
  -1   6  -1 12675.0 229.726   2
   1   6  -1 12087.0 210.151   2
   1  -6  -1 12041.3 215.129   7
   1  -6  -1 12417.8 255.149   5
   1   6   1 10716.2 246.206   4
   1  -6   1 11244.8 212.651   2
   1  -6   1 11065.4 218.345   7
   1  -6   1 11368.8 241.220   5
   1  -6   3 1910.11 64.1623   2
   1  -6   3 2024.78 75.5026   7
   1  -6   3 2073.66 78.1480   5
  -1  -6   5 3343.00 75.6439   2
   1  -6   5 3286.52 110.336   7
   1   6   5 3337.87 106.330   9
   1  -6   5 3288.59 97.0479   9
   1  -6   5 3543.24 106.901   5
   1  -6   7 9869.43 163.052   4
  -1  -6   7 10385.9 193.695   2
   1  -6   7 10110.2 231.642   9
   1  -6   7 10360.2 242.147   7
   1   6   7 10392.6 247.297   9
   1  -6   7 10369.5 220.862   5
  -1  -6   9 1547.39 77.0044   1
   1  -6   9 1738.58 86.7021   9
   1   6   9 1712.83 94.2756   9
   1  -6   9 1715.23 88.9895   7
  -1  -6   9 1886.17 136.338   8
   1  -6   9 1697.23 70.7459   5
  -1  -6  11 1546.30 60.4334   4
   1  -6  11 1819.76 57.9677   4
  -1  -6  11 1561.32 79.1465   1
   1  -6  11 1858.74 96.4573   7
   1  -6  11 1548.00 91.5080   9
  -1  -6  11 1821.16 133.866   8
   1   6  11 1746.49 105.247   9
   1  -6  11 1848.93 127.663   8
  -1  -6  11 1654.20 89.1858   7
  -1   6  11 1778.29 57.2679   7
  -1  -6  13 5543.80 144.065   4
   1  -6  13 6016.62 139.479   4
   1  -6  13 5567.25 194.761   9
  -1  -6  13 5728.22 189.001   7
   1  -6  13 6105.04 240.093   8
   1  -6  13 5861.81 195.913   7
  -1  -6  13 6170.11 257.880   8
   1   6  13 5802.64 217.699   9
  -1  -6  13 5672.01 141.871   5
   1  -6  13 5496.65 145.474   5
  -1   6  13 6306.24 144.501   7
  -1  -6  15 1045.35 58.0956   4
   1  -6  15 1205.55 57.6489   4
   1  -6  15 1158.16 81.1337   1
   1  -6  15 1145.19 85.7306   7
   1  -6  15 1217.27 108.705   8
   1  -6  15 1144.45 90.3178   9
  -1  -6  15 1132.46 82.5692   7
   1   6  15 1109.51 99.0687   9
  -1  -6  15 1113.27 108.741   8
  -1  -6  15 1136.60 52.0213   5
   1  -6  15 1295.04 58.4512   5
  -1   6  15 1288.19 63.6827   7
  -1  -6  17 474.275 41.8374   4
   1   6  17 336.406 64.2469   4
   1  -6  17 559.013 42.4075   4
   1  -6  17 631.693 64.4317   1
  -1  -6  17 582.206 62.6373   7
  -1  -6  17 535.530 79.5272   8
   1   6  17 595.199 80.3540   9
   1  -6  17 504.050 62.9518   7
   1  -6  17 512.167 75.1937   8
   1  -6  17 631.002 38.0480   6
  -1   6  17 613.736 49.1440   7
  -1  -6  17 493.466 31.2916   5
   1  -6  19 2336.11 115.997   1
  -1  -6  19 1827.55 85.2182   4
   1  -6  19 2007.91 86.0708   4
   1   6  19 1545.25 136.205   4
  -1   6  19 1477.22 142.676   4
  -1   6  19 2210.53 104.065   7
   1  -6  21 1184.65 78.4737   1
   1   6  21 1010.85 50.9327   1
   1   6  21 962.763 109.165   4
   1  -6  21 1129.57 65.2047   4
  -1  -6  21 1002.95 62.5052   4
  -1   6  21 912.705 110.637   4
  -1   6  21 1193.07 80.7533   7
  -1  -6  23 536.239 46.4099   4
   1  -6  23 613.446 48.8270   4
  -1  -7 -16 2624.93 68.9408   5
   1  -7 -16 2746.14 81.4718   6
   1  -7 -14 1734.87 66.3370   5
  -1  -7 -14 1950.17 67.4329   5
   1  -7 -12 3415.74 100.937   5
  -1  -7 -12 4405.64 114.875   5
   1   7 -10 4424.08 173.220   1
  -1   7 -10 647.220 90.5605   1
   1   7  -8 10025.2 241.850   1
  -1   7  -8 9183.83 226.599   3
  -1  -7  -8 6894.81 119.094   7
  -1   7  -8 6931.24 201.678   8
   1  -7  -8 7970.67 167.735   5
   1   7  -6 13114.0 243.104   3
   1  -7  -6 10895.4 236.030   9
  -1   7  -6 11687.1 299.531   8
   1   7  -6 12035.0 243.898   9
  -1  -7  -6 10250.5 190.085   7
   1  -7  -6 12625.3 248.838   5
   1   7  -4 2901.86 114.473   1
  -1   7  -4 2764.92 123.063   1
   1   7  -4 2118.17 71.9063   9
  -1   7  -4 2065.28 118.938   8
   1  -7  -4 1874.27 67.6538   9
   1  -7  -4 2341.51 89.6973   5
   1   7  -2 7067.05 132.708   4
   1   7  -2 5984.75 171.996   1
   1   7  -2 6917.04 126.425   2
  -1   7  -2 7391.98 149.872   2
  -1   7  -2 7866.87 210.514   1
   1  -7  -2 5132.44 117.131   7
   1  -7  -2 6017.78 121.742   9
   1  -7  -2 6716.39 170.175   5
   1   7   0 20764.7 375.894   4
  -1   7   0 21547.3 347.378   2
   1   7   2 5589.12 176.558   4
   1  -7   2 6139.80 135.625   2
   1   7   2 6090.81 121.278   9
   1  -7   2 6022.15 112.810   9
   1  -7   2 5604.77 144.439   7
   1  -7   2 5688.68 159.669   5
   1  -7   4 2174.24 71.7589   2
   1  -7   4 2272.37 69.9084   9
   1  -7   4 2120.76 85.0825   7
   1   7   4 2296.50 78.9959   9
   1  -7   4 2273.22 88.5039   5
   1  -7   6 11206.2 227.167   2
   1  -7   6 11008.6 254.706   7
   1  -7   6 11750.0 236.185   9
   1   7   6 11718.2 252.999   9
   1  -7   6 11621.0 245.663   5
   1  -7   8 7258.30 177.540   2
   1  -7   8 7454.05 192.942   9
   1   7   8 7779.17 212.539   9
   1  -7   8 7194.09 202.540   7
   1  -7   8 7396.07 183.553   5
   1  -7  10 6288.80 101.912   4
  -1  -7  10 4821.16 95.9344   4
   1  -7  10 6267.24 196.270   1
   1  -7  10 6450.52 267.389   8
   1  -7  10 5879.33 177.237   9
  -1  -7  10 4668.30 164.781   7
  -1  -7  10 6448.42 275.236   8
   1  -7  10 6032.84 184.990   7
   1   7  10 6239.90 200.305   9
   1  -7  12 3343.68 81.3563   4
  -1  -7  12 3782.16 86.5098   4
  -1   7  12 2838.32 97.4473   1
   1  -7  12 4191.56 158.666   1
   1  -7  12 3745.10 148.407   9
   1   7  12 4038.78 171.798   9
   1  -7  12 3892.02 152.387   7
  -1  -7  12 4337.85 226.277   8
  -1  -7  12 3840.92 145.694   7
   1  -7  12 4297.62 217.451   8
   1  -7  12 3602.79 116.568   5
  -1  -7  12 3763.30 113.488   5
   1  -7  14 2247.30 67.3963   4
  -1  -7  14 1919.70 65.8160   4
   1  -7  14 2038.83 150.916   8
   1   7  14 1994.15 129.159   9
  -1  -7  14 2132.73 111.077   7
   1  -7  14 1959.06 112.112   7
  -1  -7  14 1925.46 153.760   8
  -1  -7  14 1831.19 75.2292   5
   1  -7  14 1814.45 78.2826   5
   1  -7  16 3337.94 96.0518   4
  -1  -7  16 3513.20 99.6326   4
   1  -7  16 3838.67 161.229   1
  -1   7  16 2963.52 73.9941   1
   1  -7  16 3602.88 208.399   8
  -1  -7  16 3527.85 216.072   8
  -1  -7  16 3589.46 153.736   7
   1   7  16 3629.49 186.924   9
   1  -7  16 3613.27 160.189   7
   1  -7  16 3778.45 111.836   5
  -1  -7  16 3185.20 100.251   5
   1  -7  18 902.738 73.0468   1
  -1  -7  18 852.301 48.7828   4
   1  -7  18 807.078 47.2524   4
  -1   7  18 608.799 95.2899   4
   1   7  18 579.322 87.8423   4
   1  -7  18 955.413 49.2212   6
  -1  -7  18 935.382 45.4645   5
   1  -7  20 98.1712 29.3171   1
   1   7  20 102.257 26.4310   1
   1  -7  20 86.4513 19.0021   4
  -1   7  20 95.4089 49.4213   4
   1   7  20 51.0236 38.8449   4
   1  -7  22 1267.38 84.9819   1
   1  -7  22 1232.23 61.9313   4
  -1  -7  22 1078.33 58.1621   4
  -1  -8 -17 1279.36 48.9276   5
   1  -8 -17 1552.10 59.8423   6
   1  -8 -15 418.011 34.0338   5
  -1  -8 -15 458.083 33.4506   5
   1   8 -13 2185.41 124.050   8
  -1   8 -13 2182.74 116.448   8
   1  -8 -13 2072.87 79.2500   5
   1   8 -11 679.159 83.2724   1
  -1   8 -11 590.286 91.3802   1
  -1   8  -9 416.001 52.2404   3
  -1   8  -9 385.456 64.1428   1
   1   8  -9 402.009 54.7938   1
   1  -8  -9 376.648 36.5967   5
  -1  -8  -9 379.354 38.9173   5
   1   8  -7 4219.69 134.061   3
   1  -8  -7 4406.20 137.053   5
   1   8  -5 1240.85 79.3416   1
   1  -8  -5 1245.81 68.6001   5
  -1   8  -3 117.679 17.9023   2
   1   8  -3 132.769 15.5084   2
  -1   8  -3 172.288 34.7155   1
   1   8  -3 165.297 33.1826   1
   1   8  -3 153.318 13.1481   4
   1  -8  -3 123.221 23.7183   5
   1   8  -1 3172.41 96.2143   4
  -1   8  -1 2980.85 87.9939   2
   1   8  -1 3006.61 76.0309   2
   1  -8  -1 2751.92 79.2404   7
   1  -8  -1 2718.18 107.830   5
   1   8   1 2913.70 113.509   4
  -1   8   1 3093.27 121.300   1
  -1   8   1 3309.76 90.0055   2
   1  -8   1 2944.05 110.383   5
   1   8   3 95.3265 25.6252   4
  -1   8   3 125.416 26.4627   1
   1  -8   3 173.789 19.6214   2
   1   8   3 171.906 17.7503   9
   1  -8   3 128.216 21.3708   7
   1  -8   3 145.848 14.5233   9
   1  -8   3 177.264 27.3514   5
   1   8   5 708.385 73.5462   4
  -1  -8   5 875.258 35.0156   2
   1  -8   5 906.295 47.1492   2
   1  -8   5 881.899 46.8883   9
   1   8   5 1146.00 57.4736   9
   1  -8   5 1044.59 61.4560   5
   1  -8   7 3781.11 113.863   2
   1  -8   7 3783.09 136.606   7
   1   8   7 4109.31 136.256   9
   1  -8   7 4132.97 131.232   5
   1  -8   9 597.870 60.3168   1
  -1  -8   9 451.822 30.3712   2
   1  -8   9 510.222 50.7602   7
   1   8   9 593.451 55.5978   9
  -1  -8   9 436.601 39.0668   5
   1  -8   9 491.719 42.7474   5
   1  -8  11 1343.89 91.7774   1
  -1  -8  11 1093.97 53.2471   2
   1  -8  11 1230.63 84.5884   7
   1   8  11 1271.00 89.4810   9
   1  -8  11 1348.72 128.091   8
  -1  -8  11 1198.97 77.6835   7
  -1  -8  11 1362.17 133.853   8
   1  -8  13 2271.04 50.4361   4
   1   8  13 2394.75 136.438   9
   1  -8  13 2316.13 120.983   7
  -1  -8  13 2430.11 118.666   7
  -1  -8  13 2489.57 185.174   8
   1  -8  13 2570.31 178.704   8
   1  -8  13 2147.34 90.8784   5
  -1  -8  13 2242.76 89.2578   5
  -1  -8  15 520.502 25.6098   4
   1   8  15 310.243 64.0692   4
   1  -8  15 527.515 26.7533   4
  -1  -8  15 505.508 21.5205   4
   1  -8  15 511.924 59.3865   1
   1  -8  15 570.310 64.3167   7
  -1  -8  15 556.777 59.6347   7
   1  -8  15 549.714 89.2540   8
  -1  -8  15 443.640 85.3488   8
  -1  -8  15 501.451 40.7104   5
   1  -8  15 503.433 42.4637   5
   1   8  17 1055.36 114.834   4
   1  -8  17 1502.16 52.3271   4
  -1  -8  17 1738.96 54.9486   4
  -1   8  17 1109.69 38.5699   1
   1  -8  17 1854.35 103.430   1
   1  -8  17 1944.38 164.891   8
   1  -8  17 1798.57 77.8792   5
  -1  -8  17 1772.76 73.5359   5
   1  -8  19 275.108 43.3189   1
   1   8  19 178.510 56.6540   4
  -1  -8  19 245.256 22.6388   4
   1  -8  19 219.476 21.7581   4
  -1   8  19 166.162 59.2416   4
   1  -8  19 268.637 28.3015   6
  -1  -8  19 281.161 26.3521   5
   1  -8  21 516.340 57.3000   1
  -1  -8  21 434.433 29.8614   4
   1  -9 -18 455.251 34.1625   6
  -1  -9 -18 442.498 29.0024   5
   1  -9 -16 2549.90 93.5824   5
  -1  -9 -16 2942.35 94.5641   5
   1   9 -14 414.229 57.9485   8
  -1   9 -14 407.116 54.0959   8
   1  -9 -14 332.444 33.5328   5
  -1  -9 -14 441.710 38.9253   5
   1   9 -12 1480.08 105.992   8
  -1   9 -12 1588.39 100.740   8
  -1  -9 -12 1700.17 80.1925   5
   1  -9 -12 1609.13 76.8068   5
  -1   9 -10 2855.89 189.641   1
   1   9 -10 5990.06 228.007   1
   1   9  -8 4630.33 187.342   1
  -1   9  -8 4441.27 215.899   1
  -1   9  -8 4339.37 158.150   3
  -1  -9  -8 3822.14 139.285   5
   1  -9  -8 3958.51 137.579   5
  -1   9  -6 3394.70 167.508   8
   1  -9  -6 3793.42 137.398   5
  -1   9  -4 6008.29 110.471   4
  -1   9  -4 6235.46 242.679   8
   1   9  -2 7459.28 154.376   4
  -1   9  -2 7155.93 165.106   2
   1   9  -2 8495.01 235.639   1
   1   9  -2 7119.63 145.914   2
  -1   9  -2 9135.27 245.550   1
   1  -9  -2 5941.20 138.069   7
   1  -9  -2 6941.69 195.872   5
   1   9   0 8744.59 214.573   4
  -1   9   0 9069.24 189.685   2
   1   9   0 7863.33 217.771   1
   1   9   0 9431.37 176.895   2
   1  -9   0 8256.27 186.449   7
   1  -9   0 7820.28 221.966   5
   1   9   2 6513.79 206.009   4
   1  -9   2 6310.74 168.600   7
   1  -9   4 5750.29 144.315   2
   1  -9   4 6294.32 171.165   7
   1  -9   4 6296.73 180.768   5
   1   9   6 2804.55 155.632   4
   1  -9   6 3518.40 104.754   2
  -1   9   6 3105.56 128.768   1
   1   9   6 3999.04 122.155   9
   1  -9   6 3757.51 133.718   7
   1  -9   6 3823.54 131.526   5
  -1  -9   8 3243.59 87.9424   2
   1  -9   8 3809.22 140.269   7
   1  -9   8 3758.60 131.359   5
  -1  -9   8 3418.09 121.625   5
  -1  -9  10 5569.93 134.911   2
   1  -9  10 6274.21 206.157   1
   1  -9  10 6130.44 197.087   7
  -1  -9  10 6087.73 187.398   7
   1  -9  10 5648.15 175.124   9
   1  -9  12 1612.38 79.3571   2
  -1  -9  12 1707.25 68.4584   2
   1  -9  12 2050.48 111.207   1
  -1  -9  12 1867.05 101.718   7
   1  -9  12 1848.06 107.349   7
   1  -9  12 1723.95 85.4549   5
  -1  -9  12 1777.21 82.8315   5
   1   9  14 219.990 59.7628   4
   1  -9  14 416.778 42.3475   2
  -1  -9  14 376.533 34.5897   2
  -1  -9  14 416.665 52.8524   7
  -1  -9  14 439.234 87.2011   8
   1  -9  14 536.882 90.5673   8
   1  -9  14 432.078 57.5854   7
   1  -9  16 2777.29 130.674   1
  -1   9  16 2688.62 86.8082   1
   1  -9  16 3128.43 216.675   8
  -1  -9  16 2928.03 218.807   8
   1  -9  16 2799.44 107.051   5
  -1  -9  16 2682.70 101.246   5
   1  -9  18 696.989 65.7906   1
   1   9  18 442.133 80.5255   4
   1  -9  18 401.988 15.5463   4
  -1   9  18 403.797 82.3641   4
   1  -9  18 691.658 50.2761   5
  -1  -9  18 606.589 44.5965   5
   1   9  20 8.48735 15.4071   1
   1  -9  20 10.9060 22.7157   1
   1  -9  20 2.03563 5.28827   4
  -1  -9  20 2.23842 12.1504   5
   1  -9  20 2.60159 14.3682   6
   1 -10 -19 1415.57 62.2034   6
   1 -10 -17 276.698 31.3929   5
  -1 -10 -17 264.182 29.1163   5
   1  10 -15 1014.62 92.2098   8
  -1  10 -15 989.791 86.1742   8
  -1 -10 -15 1145.14 64.9494   5
   1 -10 -15 939.839 58.6359   5
   1  10 -13 5691.11 269.581   1
   1  10 -13 4850.35 206.099   8
  -1  10 -13 4778.23 194.044   8
  -1 -10 -13 5466.56 165.206   5
   1 -10 -13 5325.04 162.881   5
  -1  10 -11 835.807 108.160   1
   1  10 -11 1022.16 102.197   1
  -1  10 -11 999.887 87.9483   3
  -1  10 -11 755.340 74.0971   8
   1  10 -11 908.728 86.1398   8
   1 -10 -11 811.758 60.5276   5
  -1 -10 -11 924.713 65.6672   5
   1  10  -9 1542.08 86.1851   3
  -1  10  -9 1355.25 133.306   1
  -1 -10  -7 7947.40 230.553   5
   1 -10  -7 8174.13 230.877   5
   1  10  -5 3094.86 140.980   1
  -1  10  -5 3228.10 160.397   1
  -1  10  -3 2953.66 146.514   1
   1  10  -3 2780.79 132.147   1
   1  10  -3 2446.59 75.8963   2
  -1  10  -3 2414.22 86.8332   2
   1 -10  -3 2459.29 111.290   5
   1  10  -1 5723.31 149.240   4
  -1  10  -1 5571.68 140.951   2
   1  10  -1 5473.50 126.156   2
   1 -10  -1 5104.79 130.678   7
   1 -10  -1 5611.23 176.957   5
   1  10   1 5182.37 174.758   4
  -1  10   1 6126.26 149.493   2
  -1  10   1 6499.72 203.609   1
   1  10   1 6413.89 138.848   2
   1 -10   1 5280.54 148.129   7
   1 -10   1 5848.91 183.409   5
  -1  10   3 2426.16 85.3435   2
   1 -10   3 2179.86 92.3647   7
   1 -10   3 2268.55 106.536   5
   1  10   5 1814.48 117.684   4
   1 -10   5 2063.01 71.4520   2
   1 -10   5 2413.98 100.669   7
   1 -10   5 2477.60 103.701   5
   1 -10   7 8521.34 228.284   7
   1 -10   7 8284.10 221.053   5
  -1 -10   7 8857.93 220.593   5
  -1 -10   9 1212.06 50.2758   2
   1 -10   9 1325.09 84.6256   1
   1 -10   9 1236.26 62.7855   2
   1 -10   9 1335.13 86.8749   7
  -1 -10   9 1336.52 81.8313   7
   1 -10   9 1286.60 76.2805   5
  -1 -10   9 1374.97 76.2428   5
   1 -10  11 757.947 67.5362   1
   1 -10  11 727.185 51.4705   2
  -1 -10  11 741.017 40.9142   2
   1 -10  11 812.668 71.9908   7
  -1 -10  11 744.384 64.4714   7
  -1 -10  11 639.238 52.7301   5
   1 -10  11 620.435 53.2522   5
  -1 -10  13 5234.21 134.530   2
   1 -10  13 5687.46 203.839   7
  -1 -10  13 5530.15 193.686   7
  -1 -10  13 5355.20 160.022   5
   1 -10  13 5261.80 165.900   5
   1 -10  15 964.960 78.1962   1
  -1 -10  15 878.296 51.3379   2
  -1  10  15 922.717 57.5735   1
   1 -10  15 902.115 61.3663   2
  -1 -10  15 977.384 63.2004   5
   1 -10  15 877.524 62.2016   5
   1 -10  17 312.501 47.9334   1
   1  10  17 276.655 36.1802   1
  -1  10  17 299.227 28.5817   1
  -1 -10  17 266.440 31.1876   2
   1 -10  17 258.317 36.7867   2
   1  10  17 184.334 57.8608   4
  -1  10  17 193.320 60.8407   4
  -1 -10  17 248.284 32.5362   5
   1 -10  17 235.674 32.6340   5
  -1 -10  19 1422.39 72.7548   2
   1 -10  19 1373.51 82.8754   2
   1 -10  19 1507.75 78.3351   5
  -1 -10  19 1471.59 73.7344   5
   1 -10  21 713.044 61.2973   2
  -1 -10  21 702.334 53.1183   2
  -1 -11 -18 224.534 27.9445   5
   1  11 -16 1213.67 104.579   8
   1 -11 -16 1214.92 70.8453   5
  -1 -11 -16 1322.75 72.7185   5
   1  11 -14 38.4944 29.2940   8
  -1  11 -14 46.9775 28.1620   8
   1 -11 -14 25.1683 19.2741   5
  -1 -11 -14 24.0881 17.7745   5
  -1  11 -12 982.945 130.119   1
   1  11 -12 838.805 104.617   1
  -1  11 -12 586.833 68.5180   8
   1  11 -12 644.665 76.6982   8
   1 -11 -12 731.865 60.3274   5
  -1 -11 -12 803.484 63.9047   5
  -1  11 -10 3538.57 212.803   1
  -1  11 -10 3489.80 157.080   3
   1  11 -10 3830.69 191.601   1
  -1  11 -10 2766.94 150.991   8
   1  11 -10 2989.05 167.236   8
  -1  11  -8 962.602 72.9393   3
   1  11  -8 1064.79 97.5968   1
   1  11  -8 1061.43 67.7298   3
   1  11  -8 910.753 95.5732   8
   1 -11  -8 930.907 71.0190   5
  -1 -11  -8 912.328 72.8401   5
   1 -11  -6 3306.52 140.282   5
  -1 -11  -6 3343.57 142.317   5
  -1  11  -4 1484.57 57.0570   4
  -1  11  -4 1465.05 40.6346   4
   1 -11  -4 1511.01 90.3202   5
   1 -11  -4 1398.33 43.3565   7
  -1 -11  -4 1578.73 94.3140   5
  -1  11  -2 1077.32 56.1913   2
   1  11  -2 1324.39 95.9469   1
  -1  11  -2 1352.79 101.780   1
   1 -11  -2 1016.75 74.1837   5
  -1  11   0 6937.49 169.720   2
   1  11   0 6900.26 154.083   2
   1  11   0 6617.98 188.481   4
   1 -11   0 6703.32 208.370   5
   1  11   2 973.052 77.1267   4
  -1  11   2 1197.74 58.8989   2
  -1  11   2 1310.95 90.1852   1
   1 -11   2 1111.61 64.7847   7
   1 -11   2 1399.83 84.6422   5
  -1  11   4 1296.63 64.4687   2
   1 -11   4 1171.91 72.1483   7
   1 -11   4 1287.59 80.5254   5
   1 -11   6 3266.28 130.792   7
   1 -11   6 3253.78 132.558   5
  -1 -11   6 3404.44 132.710   5
   1 -11   8 877.286 52.2234   2
  -1 -11   8 1122.63 74.1909   7
   1 -11   8 1002.80 74.0831   7
   1 -11   8 990.316 70.4618   5
  -1 -11   8 911.701 65.3967   5
  -1 -11  10 2760.33 82.5044   2
   1 -11  10 2772.30 101.463   2
   1 -11  10 2828.46 133.372   1
   1 -11  10 3107.46 140.995   7
  -1 -11  10 3046.53 130.922   7
   1 -11  12 862.117 73.8076   1
   1  11  12 835.786 65.2332   1
   1 -11  12 686.580 50.7659   2
  -1 -11  12 722.101 41.8757   2
   1 -11  12 913.645 78.1769   7
  -1 -11  12 850.044 72.4224   7
  -1 -11  12 831.703 61.9491   5
   1 -11  12 786.180 62.3631   5
  -1 -11  14 22.9315 12.9568   2
   1  11  14 22.0920 18.8443   1
  -1  11  14 21.3014 17.0878   1
   1 -11  14 16.2407 14.2565   2
   1  11  14 33.2152 35.0600   4
   1 -11  14 22.7788 17.3492   5
  -1 -11  14 33.2391 19.3360   5
   1 -11  16 1357.86 95.6907   1
  -1 -11  16 1270.87 62.4880   2
   1 -11  16 1170.15 71.0970   2
   1  11  16 1475.22 84.3189   1
  -1  11  16 1359.79 73.0749   1
  -1  11  16 872.135 117.862   4
   1  11  16 777.782 105.284   4
  -1 -11  16 1216.63 73.2235   5
   1 -11  16 1244.46 77.7104   5
   1 -11  18 323.489 39.7072   2
  -1 -11  18 341.282 34.4839   2
  -1  11  18 368.640 32.1431   1
   1 -11  18 335.652 39.5500   5
  -1 -11  18 337.041 38.7310   5
  -1 -11  20 128.325 24.0033   2
   1 -11  20 156.317 30.7566   2
   1  12 -17 281.026 56.5577   8
  -1 -12 -17 310.041 38.8724   5
   1 -12 -17 286.989 37.8978   5
   1  12 -15 245.662 78.5836   1
   1  12 -15 262.832 54.0800   8
  -1  12 -15 213.977 47.8068   8
   1 -12 -15 210.640 35.0314   5
  -1 -12 -15 280.305 39.4630   5
   1  12 -13 2203.72 181.220   1
  -1  12 -13 1594.68 114.011   8
   1  12 -13 1502.69 117.940   8
   1 -12 -13 1831.10 99.6422   5
  -1 -12 -13 2027.16 105.009   5
  -1  12 -11 370.464 80.7120   1
  -1  12 -11 433.739 60.7255   3
  -1  12 -11 290.657 52.0860   8
   1  12 -11 260.481 54.9885   8
  -1 -12 -11 374.071 48.3052   5
   1 -12 -11 373.149 47.8673   5
   1  12  -9 177.643 50.5628   1
  -1  12  -9 118.803 32.7359   3
  -1  12  -9 211.333 63.3392   1
   1  12  -9 117.981 29.9116   3
  -1  12  -9 119.660 35.7674   8
   1  12  -9 78.7258 33.6844   8
   1  12  -7 2719.71 106.774   3
   1  12  -7 2243.76 161.334   8
  -1  12  -7 2346.64 153.730   8
  -1 -12  -7 2501.85 127.091   5
   1 -12  -7 2512.96 126.650   5
  -1  12  -5 1366.59 114.457   1
   1  12  -5 1179.99 98.9582   1
   1  12  -5 959.354 109.674   8
  -1 -12  -5 1197.69 86.5515   5
   1 -12  -5 1029.77 79.4765   5
   1  12  -3 807.493 38.3659   4
  -1  12  -3 778.418 49.7120   4
  -1  12  -3 1016.23 97.2115   1
   1 -12  -3 656.103 35.8810   7
  -1 -12  -3 912.175 73.4838   5
   1 -12  -3 774.279 68.4367   5
   1  12  -1 1572.25 108.987   1
  -1  12  -1 1711.08 117.755   1
  -1  12  -1 1402.45 66.9793   2
   1 -12  -1 1380.76 91.1392   5
  -1 -12  -1 1516.26 95.1604   5
  -1  12   1 1223.66 62.4388   2
   1  12   1 1206.84 56.4884   2
  -1  12   1 1507.31 103.609   1
   1 -12   1 1431.31 89.8305   5
   1  12   3 656.571 67.5347   4
  -1  12   3 858.681 53.2331   2
  -1  12   3 917.642 79.7220   1
   1 -12   3 828.310 60.4108   7
   1 -12   3 932.940 71.3815   5
  -1  12   5 1170.26 65.0661   2
   1 -12   5 1096.15 73.3418   7
  -1 -12   5 1200.29 79.4713   5
   1 -12   5 1033.08 76.2184   5
   1 -12   7 2095.83 83.5523   2
   1 -12   7 2409.45 116.675   7
  -1 -12   7 2348.24 110.331   7
  -1 -12   7 2527.04 116.039   5
   1 -12   7 2291.60 113.595   5
   1  12   9 97.2396 39.2470   4
  -1  12   9 101.436 30.5222   1
   1 -12   9 119.576 22.1060   2
   1 -12   9 143.494 35.1898   1
   1  12   9 55.9500 23.3956   1
  -1 -12   9 116.007 29.6344   7
   1 -12   9 129.640 33.3829   7
   1  12  11 226.462 58.3586   4
   1 -12  11 383.677 53.4765   1
  -1  12  11 403.993 49.9445   1
  -1 -12  11 383.705 29.3583   2
   1 -12  11 335.209 35.0735   2
   1  12  11 472.159 54.6126   1
  -1 -12  11 373.674 49.4128   7
   1 -12  11 514.900 59.8663   7
  -1 -12  11 403.008 46.4349   5
   1 -12  11 347.394 45.3444   5
   1 -12  13 1505.76 75.6700   2
  -1  12  13 1798.02 99.5583   1
  -1 -12  13 1515.88 62.3892   2
  -1 -12  13 1734.54 107.013   7
   1 -12  13 1735.72 112.783   7
   1 -12  13 1600.62 93.7288   5
  -1 -12  13 1598.62 89.1404   5
  -1 -12  15 244.256 26.9002   2
  -1  12  15 302.122 41.1164   1
   1  12  15 358.412 46.6163   1
   1 -12  15 220.488 31.3865   2
  -1  12  15 179.918 62.2982   4
   1  12  15 204.939 58.5503   4
   1 -12  15 222.573 37.6160   5
  -1 -12  15 240.874 36.8579   5
  -1 -12  17 284.458 29.2010   2
   1  12  17 430.114 54.5228   1
   1 -12  17 295.243 37.2592   2
  -1  12  17 341.223 40.4597   1
   1  12  17 175.447 61.3150   4
  -1  12  17 187.880 64.6226   4
   1 -12  17 354.348 44.3758   5
  -1 -12  17 283.102 38.5399   5
   1  12  19 513.495 57.3616   1
  -1 -12  19 351.794 34.0156   2
   1 -12  19 402.522 43.8279   2
  -1 -12  19 367.976 41.1211   5
   1 -12  19 407.886 45.7433   5
  -1 -13 -18 730.041 56.1437   5
   1 -13 -18 785.441 61.5696   5
   1  13 -16 2707.93 162.663   8
   1 -13 -16 2684.71 120.232   5
  -1 -13 -16 2936.74 125.724   5
  -1  13 -14 681.101 78.0725   8
   1  13 -14 686.084 84.4967   8
  -1 -13 -14 745.408 66.8633   5
   1 -13 -14 588.385 60.6184   5
   1  13 -12 1304.60 148.278   1
  -1  13 -12 1395.78 108.457   3
  -1  13 -12 1226.38 103.731   8
   1  13 -12 1099.05 105.760   8
   1 -13 -12 1354.01 91.6727   5
  -1 -13 -12 1377.48 94.4614   5
  -1  13 -10 5662.47 291.255   1
  -1  13 -10 5220.44 198.500   3
   1  13 -10 6161.76 265.759   1
   1  13 -10 4259.13 214.058   8
  -1  13 -10 4448.54 210.681   8
  -1 -13 -10 5034.65 190.231   5
   1 -13 -10 4996.39 188.222   5
   1  13  -8 2885.40 117.564   3
  -1  13  -8 2806.59 129.895   3
   1  13  -8 3399.21 182.744   1
  -1  13  -8 2952.21 203.571   1
  -1  13  -8 2370.13 154.619   8
   1  13  -8 2474.81 169.114   8
   1  13  -6 3184.72 168.045   1
  -1  13  -6 3778.05 201.897   1
  -1  13  -6 2227.38 159.508   8
  -1 -13  -6 1772.41 54.3021   7
   1  13  -6 2387.26 176.745   8
   1 -13  -6 2700.81 134.611   5
  -1 -13  -6 2794.57 138.400   5
  -1  13  -4 4505.10 112.580   4
  -1  13  -4 4512.25 93.0121   4
   1  13  -4 6165.80 101.162   4
   1  13  -4 4437.75 126.826   2
  -1  13  -4 6348.99 254.314   1
   1  13  -4 5477.84 215.420   1
  -1  13  -4 4014.49 222.044   8
  -1 -13  -4 4189.14 116.256   7
   1  13  -4 4244.31 237.352   8
   1 -13  -4 4251.02 101.338   7
  -1 -13  -4 5449.45 195.805   5
   1 -13  -4 4641.30 183.436   5
   1  13  -2 4366.91 120.431   4
  -1  13  -2 4465.43 146.739   4
   1  13  -2 4520.66 123.315   2
  -1  13  -2 5556.08 232.126   1
   1 -13  -2 3937.93 116.498   7
   1 -13  -2 4638.82 179.070   5
  -1 -13  -2 5431.46 191.096   5
   1  13   0 4043.91 141.942   4
  -1  13   0 5130.82 211.486   1
  -1  13   0 3860.34 123.114   2
   1 -13   0 3349.48 117.536   7
  -1 -13   0 4722.36 175.842   5
   1 -13   0 4141.70 166.688   5
  -1  13   2 4394.77 135.528   2
   1 -13   2 4556.96 174.914   5
  -1  13   4 5247.36 205.875   1
  -1  13   4 4948.29 149.440   2
   1 -13   4 4780.72 180.446   5
  -1 -13   4 5154.01 183.803   5
  -1  13   6 2656.93 107.543   2
  -1 -13   6 2748.67 120.795   7
   1 -13   6 2896.94 129.283   7
   1 -13   6 2780.61 132.539   5
  -1 -13   6 3118.20 135.912   5
   1  13   8 1784.13 138.134   4
   1 -13   8 2175.08 88.0677   2
  -1  13   8 2866.85 141.522   1
  -1 -13   8 2488.63 118.018   7
   1 -13   8 2345.22 121.863   7
   1 -13   8 2329.57 120.016   5
  -1 -13   8 2439.98 119.219   5
   1  13  10 5929.01 200.861   1
  -1  13  10 5648.38 201.804   1
   1 -13  10 4593.77 139.086   2
   1 -13  10 5244.63 194.923   7
  -1 -13  10 4903.68 181.520   7
   1  13  12 788.490 101.841   4
   1  13  12 1513.29 98.7853   1
  -1  13  12 1306.96 92.1024   1
  -1 -13  12 1085.95 50.1536   2
   1 -13  12 1062.47 62.4156   2
   1 -13  12 1265.03 96.1514   7
  -1 -13  12 1218.71 90.1273   7
  -1 -13  12 1067.47 76.7296   5
   1 -13  12 1186.27 83.6537   5
   1 -13  14 502.858 44.3966   2
  -1 -13  14 526.097 35.7260   2
  -1  13  14 619.294 62.3620   1
  -1  13  14 403.662 87.1266   4
   1  13  14 338.406 74.0441   4
  -1 -13  14 558.185 55.5398   5
   1 -13  14 520.771 56.2844   5
  -1 -13  16 2786.23 90.1652   2
  -1  13  16 3327.29 135.475   1
   1 -13  16 2714.49 108.932   2
   1  13  16 2002.87 175.675   4
  -1  13  16 2024.88 185.079   4
   1 -13  16 2828.69 129.343   5
  -1 -13  16 2982.67 126.136   5
   1 -13  18 636.528 51.8827   2
  -1 -13  18 632.657 41.1751   2
  -1 -13  18 616.408 55.9829   5
   1 -13  18 687.513 60.3614   5
   1 -14 -17 49.3475 25.4490   5
  -1 -14 -17 60.1377 28.1134   5
   1  14 -15 1143.44 106.848   8
  -1 -14 -15 1122.80 84.7835   5
   1 -14 -15 1076.39 82.2069   5
   1  14 -13 3288.00 187.805   8
   1 -14 -13 3749.84 162.694   5
  -1 -14 -13 3620.63 162.004   5
  -1  14 -11 1267.91 148.562   1
  -1  14 -11 1086.32 92.0337   3
  -1  14 -11 941.186 94.3919   8
   1  14 -11 1021.95 107.973   8
   1 -14 -11 1122.14 90.1516   5
  -1 -14 -11 1112.18 89.1597   5
  -1  14  -9 1783.60 108.553   3
   1  14  -9 1780.27 95.7565   3
   1  14  -9 1884.64 147.950   1
   1  14  -9 1659.17 139.209   8
  -1  14  -9 1474.68 120.361   8
   1 -14  -9 1639.39 108.091   5
  -1 -14  -9 1679.78 111.127   5
   1  14  -7 5249.11 269.797   8
  -1  14  -7 5218.97 252.470   8
   1 -14  -7 5790.32 216.363   5
  -1 -14  -7 5623.98 214.605   5
  -1  14  -5 3662.85 201.925   1
   1  14  -5 3262.96 177.998   1
   1  14  -5 2350.95 181.897   8
  -1 -14  -5 1899.45 66.7720   7
  -1  14  -5 2342.51 173.251   8
  -1 -14  -5 3256.09 153.022   5
   1 -14  -5 2721.74 140.321   5
  -1  14  -3 2283.36 86.2825   4
   1  14  -3 2314.04 72.1033   4
   1  14  -3 3010.12 160.005   1
   1  14  -3 2278.16 85.4552   2
  -1  14  -3 3301.78 186.518   1
  -1  14  -3 2223.50 95.1721   2
  -1 -14  -3 2308.39 84.0917   7
   1 -14  -3 2061.36 74.9492   7
   1 -14  -3 2460.09 134.113   5
  -1 -14  -3 2937.25 144.324   5
   1  14  -1 5457.12 156.771   4
  -1  14  -1 5520.55 182.080   4
   1  14  -1 6604.37 240.089   1
  -1  14  -1 7188.88 266.523   1
   1  14  -1 5180.85 144.043   2
   1 -14  -1 4989.70 148.576   7
  -1 -14  -1 5664.58 157.390   7
   1 -14  -1 6014.44 214.149   5
  -1 -14  -1 6659.04 221.851   5
   1  14   1 5090.54 177.773   4
  -1  14   1 4892.52 195.672   4
   1  14   1 4887.85 139.373   2
  -1  14   1 6686.46 250.075   1
  -1 -14   1 5326.29 160.844   7
   1 -14   1 4587.51 151.551   7
  -1 -14   1 6092.90 209.975   5
   1 -14   1 5639.41 204.136   5
  -1  14   3 2733.41 154.423   1
  -1  14   3 2587.13 104.587   2
  -1 -14   3 2709.63 113.688   7
   1 -14   3 2501.71 114.201   7
   1 -14   3 2905.92 142.010   5
  -1 -14   3 2853.09 137.693   5
  -1  14   5 3023.31 116.599   2
  -1 -14   5 3048.64 142.966   5
   1 -14   5 2911.30 142.239   5
  -1  14   7 5497.36 216.847   1
  -1  14   7 5195.94 165.129   2
   1 -14   7 5115.00 191.061   5
  -1 -14   7 5230.68 188.942   5
  -1  14   9 1926.83 122.728   1
  -1 -14   9 1600.12 99.7899   7
   1 -14   9 1676.83 107.250   7
   1  14  11 873.185 107.322   4
   1  14  11 1557.11 113.477   1
  -1  14  11 1405.08 102.191   1
   1 -14  11 1153.37 64.3229   2
   1 -14  11 1261.70 95.9035   7
  -1 -14  11 1188.29 89.8638   7
   1 -14  11 1102.98 84.1205   5
  -1 -14  11 1080.20 80.2681   5
   1 -14  13 3035.34 110.324   2
   1  14  13 4850.47 204.970   1
  -1  14  13 3830.24 167.455   1
   1  14  13 2277.78 182.640   4
  -1  14  13 2210.47 190.631   4
   1 -14  13 3226.31 146.752   5
  -1 -14  13 3348.03 142.797   5
   1 -14  15 1011.55 62.6107   2
  -1  14  15 1154.93 88.4035   1
  -1  14  15 706.145 114.027   4
   1  14  15 722.908 109.499   4
   1 -14  15 1061.42 81.4049   5
  -1 -14  15 1006.58 76.6995   5
  -1 -14  17 80.4296 16.4679   2
  -1  14  17 101.789 33.0788   1
   1  14  17 100.298 39.8247   1
   1 -14  17 83.2479 22.6103   2
   1 -14  17 67.5959 28.8145   5
  -1 -14  17 78.8488 26.2170   5
   1 -15 -16 599.352 64.1570   5
  -1 -15 -16 674.911 67.4916   5
  -1  15 -14 282.143 94.6902   1
   1  15 -14 236.234 56.8509   8
  -1 -15 -14 286.507 48.2533   5
   1 -15 -14 319.534 50.9534   5
  -1  15 -12 200.027 49.8663   3
  -1  15 -12 259.444 87.2855   1
   1  15 -12 168.903 81.9719   1
   1  15 -12 172.905 52.7772   8
  -1 -15 -12 189.878 45.2905   5
   1 -15 -12 181.827 43.4489   5
  -1  15 -10 1741.33 111.840   3
  -1  15 -10 2647.15 214.413   1
   1  15 -10 2324.13 179.303   1
   1  15 -10 1883.88 102.320   3
  -1  15 -10 1586.97 127.521   8
   1  15 -10 1466.26 129.499   8
  -1 -15 -10 1605.12 112.351   5
   1 -15 -10 1624.18 114.191   5
   1  15  -8 440.249 47.7279   3
  -1  15  -8 572.116 104.799   1
   1  15  -8 537.187 87.9180   1
   1  15  -8 360.695 72.0522   8
  -1  15  -8 409.342 72.3826   8
   1  15  -6 356.561 67.8860   1
  -1  15  -6 286.431 69.6921   1
  -1  15  -6 147.146 53.4088   8
   1  15  -6 167.548 59.3291   8
   1 -15  -6 209.846 45.9686   5
  -1 -15  -6 196.151 45.0239   5
  -1  15  -4 904.838 38.0825   4
  -1  15  -4 928.631 31.7006   4
   1  15  -4 916.249 29.4053   4
   1  15  -4 1210.05 108.710   1
  -1  15  -4 1295.70 124.868   1
  -1  15  -4 907.886 114.363   8
  -1 -15  -4 878.295 47.8208   7
   1  15  -4 825.955 113.047   8
  -1 -15  -4 1226.69 98.4406   5
   1 -15  -4 945.245 87.6010   5
   1 -15  -4 806.058 37.2345   7
  -1  15  -2 956.163 62.1183   4
   1  15  -2 976.463 52.9973   4
   1  15  -2 1318.47 111.392   1
  -1  15  -2 908.741 60.3482   2
   1  15  -2 907.241 54.6236   2
  -1  15  -2 1416.12 126.987   1
  -1 -15  -2 984.829 58.2964   7
  -1 -15  -2 1111.23 91.9939   5
   1 -15  -2 1048.73 90.1414   5
   1 -15  -2 918.957 53.5870   7
   1  15   0 509.863 48.4848   4
  -1  15   0 457.957 53.6396   4
  -1  15   0 621.626 83.2599   1
   1  15   0 408.674 36.9836   2
  -1  15   0 469.788 43.3436   2
  -1 -15   0 457.410 44.9292   7
   1 -15   0 377.568 40.7347   7
   1 -15   0 497.054 63.1371   5
  -1 -15   0 565.275 65.7759   5
   1  15   2 907.163 56.2092   2
  -1 -15   2 1015.82 67.9744   7
   1 -15   2 927.803 67.2437   7
  -1 -15   2 1057.80 88.8957   5
   1 -15   2 987.463 87.0512   5
   1  15   4 1055.81 63.0174   2
   1 -15   4 1039.87 76.3823   7
  -1 -15   4 1143.13 76.1422   7
   1 -15   4 1089.52 89.1554   5
  -1 -15   4 1220.12 92.0278   5
  -1  15   6 252.544 53.8972   1
  -1  15   6 193.725 32.7219   2
   1 -15   6 223.714 41.6436   7
  -1 -15   6 208.907 38.4942   7
   1 -15   6 191.010 40.5625   5
  -1 -15   6 183.379 38.1339   5
  -1  15   8 464.561 67.6141   1
  -1  15   8 447.987 49.1776   2
   1  15   8 523.980 76.0506   1
   1 -15   8 374.557 53.6731   5
  -1 -15   8 458.869 56.3950   5
  -1  15  10 1277.43 137.713   4
   1  15  10 1422.88 133.672   4
  -1 -15  10 1590.46 101.608   5
   1 -15  10 1468.52 100.485   5
   1  15  12 208.108 53.3961   1
  -1  15  12 130.042 42.2678   1
   1 -15  12 135.036 25.4189   2
   1  15  12 105.321 49.1201   4
  -1  15  12 139.141 59.7987   4
  -1  15  14 230.717 49.5014   1
   1 -15  14 272.168 32.9842   2
  -1  15  14 215.759 71.5689   4
   1  15  14 193.481 62.8362   4
  -1  15  16 802.494 77.7387   1
   1  15  16 893.322 87.5972   1
   1 -15  16 597.852 47.5365   2
   1  16 -13 1585.92 178.288   1
  -1  16 -11 637.510 118.571   1
   1  16 -11 633.009 110.709   1
  -1  16 -11 517.181 64.7712   3
   1  16 -11 406.200 74.5889   8
   1 -16 -11 488.949 66.8592   5
  -1 -16 -11 484.500 65.2513   5
  -1  16  -9 1457.74 100.559   3
   1  16  -9 1570.51 90.9123   3
   1  16  -9 1457.33 137.791   8
   1 -16  -9 1351.73 109.523   5
  -1 -16  -9 1412.11 109.369   5
   1  16  -7 695.634 102.538   8
  -1  16  -7 576.620 89.1748   8
  -1 -16  -5 513.502 32.2122   7
   1  16  -5 603.425 100.483   8
  -1  16  -5 576.852 95.1211   8
   1 -16  -5 701.047 78.3052   5
  -1 -16  -5 740.487 79.7335   5
  -1  16  -3 3277.86 100.275   4
   1  16  -3 3234.25 88.6875   4
  -1  16  -3 3427.36 126.278   2
   1  16  -3 3173.97 111.857   2
  -1  16  -3 3127.59 212.391   8
  -1 -16  -3 3301.96 109.405   7
   1 -16  -3 3169.63 100.579   7
  -1 -16  -3 4043.79 183.135   5
   1 -16  -3 3880.52 185.041   5
  -1  16  -1 22.5513 20.4611   4
   1  16  -1 12.3554 14.3605   4
  -1  16  -1 3.35548 31.3816   1
   1  16  -1 23.0270 15.7718   2
   1  16  -1 24.7888 32.5094   1
  -1  16  -1 22.2918 18.5790   2
  -1 -16  -1 25.2715 17.5337   7
   1 -16  -1 37.4132 17.1693   7
   1  16   1 47.8313 18.2082   2
   1  16   1 45.1619 32.4316   1
  -1  16   1 42.7298 19.7280   2
  -1  16   1 15.3145 32.6130   1
  -1 -16   1 66.6344 23.3077   7
   1 -16   1 69.4346 31.6151   5
  -1 -16   1 45.2161 31.5737   5
   1 -16   1 36.9482 20.7923   7
  -1  16   3 3229.57 125.719   2
   1  16   3 3272.35 119.595   2
  -1 -16   3 3623.68 141.843   7
   1 -16   3 3501.46 141.539   7
   1 -16   3 3672.90 171.472   5
  -1 -16   3 3700.64 170.489   5
  -1  16   5 497.637 75.2121   4
   1  16   5 468.978 66.3923   4
  -1 -16   5 612.407 60.1762   7
   1 -16   5 600.660 60.9252   7
   1  16   5 498.666 46.8909   2
   1  16   7 733.271 90.1537   4
  -1  16   7 747.712 98.7361   4
  -1 -16   7 788.125 70.1901   7
   1 -16   7 769.813 72.3265   7
  -1  16   7 951.714 100.571   1
   1 -16   9 1376.15 100.163   7
  -1  16   9 1652.51 130.112   1
  -1  16  11 506.344 74.3962   1
   1  16  11 616.310 85.4805   1
  -1  16  13 1302.57 109.747   1
   1  16  13 1409.93 118.656   1
   1  16  15 223.420 55.7465   1
  -1  16  15 177.662 48.6037   1
  -1  17 -12 163.667 48.7058   8
  -1  17 -12 266.927 54.7295   3
  -1  17 -10 1656.50 109.739   3
   1  17 -10 1920.75 177.655   1
   1  17 -10 1659.13 96.0948   3
  -1  17  -8 295.813 46.3723   3
   1  17  -8 259.964 40.2703   3
   1  17  -8 185.779 62.3261   8
   1  17  -8 325.816 75.8631   1
  -1  17  -8 249.310 93.1935   1
   1  17  -6 412.868 87.3164   8
   1  17  -6 496.463 87.4647   1
  -1  17  -6 717.800 112.803   1
  -1  17  -4 1620.71 41.3602   4
  -1  17  -4 1650.01 45.1434   4
   1  17  -4 2446.56 176.966   1
  -1  17  -4 2687.37 193.854   1
  -1  17  -4 1495.44 153.149   8
  -1 -17  -4 1451.33 64.0629   7
   1  17  -4 1756.67 169.670   8
  -1  17  -2 1103.05 62.6270   4
   1  17  -2 1082.74 54.6074   4
   1  17  -2 1336.83 121.868   1
  -1  17  -2 1015.60 68.5866   2
  -1  17  -2 1417.30 138.778   1
   1  17  -2 1045.83 63.0002   2
  -1 -17  -2 1133.50 66.4331   7
   1 -17  -2 1003.48 60.1076   7
   1  17   0 522.186 48.2653   4
  -1 -17   0 582.008 52.5983   7
   1 -17   0 458.022 46.6913   7
   1  17   0 477.072 43.9307   2
  -1  17   0 537.575 51.5883   2
  -1  17   0 748.621 103.427   1
   1  17   0 697.403 91.0207   1
   1 -17   2 1123.83 78.2606   7
  -1 -17   2 1277.48 81.4915   7
   1  17   2 1002.97 64.2093   2
   1  17   2 1415.44 125.383   1
  -1  17   2 1115.27 72.3074   2
  -1  17   2 1492.20 136.609   1
   1  17   4 1802.59 121.000   4
  -1  17   4 1784.39 132.354   4
  -1 -17   4 2001.42 108.326   7
   1 -17   4 1913.50 110.473   7
   1  17   4 1741.51 88.2400   2
  -1  17   4 1747.97 93.7584   2
   1  17   6 385.889 65.1500   4
  -1  17   6 464.009 75.4426   4
   1 -17   6 455.866 57.7453   7
  -1 -17   6 499.609 57.3071   7
   1  17   6 497.993 49.1248   2
  -1  17   6 556.425 85.4299   1
   1  17   8 199.844 57.6044   4
  -1  17   8 246.903 64.6012   4
   1 -17   8 287.108 50.7027   7
  -1  17   8 282.166 68.0043   1
   1  17   8 270.958 63.6430   1
  -1  17  10 1192.97 133.052   4
   1  17  10 1091.69 119.041   4
   1  17  10 1654.85 133.137   1
  -1  17  10 1645.58 134.279   1
  -1  17  12 168.893 62.8469   4
   1  17  12 216.003 64.2557   4
   1  17  12 286.953 66.7301   1
  -1  17  14 106.917 47.4404   1
   1  17  14 58.4611 43.5698   1
  -1  18 -11 375.802 58.9932   3
  -1  18  -9 45.1690 38.2907   8
  -1  18  -9 75.8520 35.5366   3
   1  18  -9 60.3179 29.0794   3
   1  18  -7 1280.85 80.0704   3
   1  18  -7 1478.59 149.881   1
  -1  18  -5 583.028 106.156   1
   1  18  -5 484.152 89.9942   1
   1  18  -5 356.516 88.9852   8
  -1 -18  -5 295.573 20.4587   7
  -1  18  -3 37.5124 13.1217   4
   1  18  -3 53.7214 12.4539   4
  -1  18  -3 35.1736 10.3637   4
  -1  18  -3 46.7907 50.3341   1
   1  18  -3 31.9431 45.6589   1
   1  18  -3 24.7273 48.2222   8
  -1 -18  -3 17.5012 15.7620   7
   1 -18  -3 25.1795 14.3317   7
   1  18  -1 574.037 45.3689   4
  -1  18  -1 567.395 50.3783   4
  -1  18  -1 590.133 54.5114   2
   1  18  -1 572.651 48.9255   2
   1  18  -1 785.807 100.674   1
  -1  18  -1 625.378 101.371   1
  -1 -18  -1 557.434 51.8720   7
   1 -18  -1 589.250 51.2799   7
  -1  18   1 627.373 56.9002   2
   1  18   1 600.738 51.3417   2
  -1  18   1 780.423 111.089   1
  -1 -18   1 744.023 62.8731   7
   1 -18   1 663.679 60.1231   7
   1  18   3 56.3176 28.4497   4
  -1  18   3 13.9544 28.6265   4
  -1  18   3 18.5270 21.2588   2
   1  18   3 67.1575 23.2560   2
   1  18   3 12.8561 38.0113   1
  -1 -18   3 53.6415 27.1415   7
   1 -18   3 43.1801 27.0251   7
  -1  18   5 299.690 63.2362   4
   1  18   5 386.811 61.9407   4
  -1 -18   5 400.382 53.4292   7
   1 -18   5 364.352 53.8976   7
   1  18   5 409.741 74.5762   1
  -1  18   5 453.433 84.8325   1
   1  18   5 297.972 39.6569   2
   1  18   7 1113.11 110.488   4
  -1  18   7 1078.52 116.264   4
  -1  18   9 43.2869 43.8888   4
   1  18   9 69.6713 45.5570   4
  -1  18   9 59.4792 45.7935   1
   1  18   9 41.9260 45.9073   1
   1  18  11 281.558 70.4311   4
   1  18  11 363.681 72.4568   1
  -1  18  11 399.516 79.7637   1
  -1  18  13 973.913 109.442   1
   1  18  13 1055.08 111.124   1
  -1  19  -8 1534.84 102.704   3
   1  19  -8 1497.88 89.5392   3
  -1  19  -6 3600.79 236.814   8
   1  19  -4 105.223 68.3738   8
  -1 -19  -4 11.0707 12.9962   7
  -1  19  -2 706.338 44.5681   4
   1  19  -2 719.781 41.3464   4
  -1  19  -2 673.843 35.6500   4
   1  19  -2 745.565 56.5643   2
  -1  19  -2 703.940 62.1408   2
   1  19  -2 899.978 113.986   1
  -1 -19  -2 722.544 55.5889   7
   1 -19  -2 689.777 51.1915   7
  -1  19   0 7846.89 344.002   1
   1  19   0 5084.30 162.040   2
   1  19   0 7099.70 304.561   1
  -1  19   0 5043.97 172.758   2
  -1 -19   0 5413.84 175.871   7
   1 -19   0 4664.12 168.274   7
   1  19   2 772.310 68.2392   4
  -1  19   2 801.504 77.0111   4
   1  19   2 734.020 59.2737   2
  -1 -19   2 890.616 72.3464   7
   1 -19   2 772.946 69.5420   7
   1  19   4 17.3094 29.3197   4
  -1  19   4-7.81070 34.0645   4
  -1  19   4 16.6370 47.1628   1
   1  19   4 37.7341 22.1863   2
  -1 -19   4 11.1263 25.0477   7
   1 -19   4 3.94479 26.4241   7
  -1  19   6 5479.90 282.314   1
   1  19   6 5027.96 251.727   1
  -1  19   6 3538.79 199.059   4
   1  19   6 3656.27 191.026   4
   1  19   8 1940.12 156.005   1
  -1  19   8 2128.16 173.605   1
   1  19   8 1455.04 129.379   4
  -1  19   8 1397.65 132.810   4
  -1  19  10 636.853 98.4703   1
   1  19  10 561.630 88.5219   1
   1  19  12 1706.98 146.166   1
  -1  19  12 1800.97 153.407   1
  -1  20  -1 897.362 56.3379   4
   1  20  -1 952.982 53.6566   4
   1  20  -1 906.546 64.7146   2
  -1 -20  -1 970.878 67.9295   7
   1 -20  -1 910.115 67.2080   7
   1  20   1 848.984 64.9540   4
  -1  20   1 872.932 70.6438   4
   1  20   1 870.084 65.3063   2
  -1 -20   1 999.564 75.6350   7
   1 -20   1 907.412 74.2189   7
   1  20   3 423.333 54.0342   4
  -1  20   3 414.746 59.4240   4
  -1 -20   3 411.747 54.1888   7
   1 -20   3 429.019 56.5103   7
  -1  20   5 766.506 88.1814   4
   1  20   5 932.269 88.9182   4
  -1  20   7 716.669 92.7500   4
   1  20   7 654.594 84.4693   4
  -1  20   7 908.431 121.131   1
  -1  20   9 533.925 96.5521   1
  -1  20  11 929.351 124.326   1
   1  21   0 1252.27 78.3319   2
  -1  21   2 179.173 38.1549   4
   1  21   2 117.213 31.0110   4
   1  21   4 158.670 39.9513   4
  -1  21   4 182.094 46.6292   4
   1  21   6 715.443 82.0526   4
  -1  21   6 661.297 84.9512   4
  -2   0 -10 4867.08 142.583   7
  -2   0  -8 1850.02 71.6773   7
  -2   0  -8 1697.35 44.7853   5
  -2   0  -6 1439.99 77.4870   4
  -2   0  -6 1224.04 51.4396   7
  -2   0  -4 4368.31 104.188   7
  -2   0  -4 4438.56 98.9542   6
  -2   0  -2 2070.69 61.4469   4
  -2   0  -2 2092.11 74.2242   3
   2   0  -2 2123.24 51.7849   8
  -2   0  -2 2027.87 62.9494   6
   2   0   0 9758.30 170.318   2
  -2   0   0 9628.42 170.603   4
  -2   0   2 2087.80 46.9771   2
  -2   0   2 1995.76 65.3792   6
  -2   0   4 4536.36 99.3251   8
   2   0   4 4407.60 112.160   7
  -2   0   4 4379.16 106.176   6
   2   0   6 1001.75 56.0608   4
   2   0   6 1045.54 66.6049   3
  -2   0   6 1063.22 45.8796   8
   2   0   6 1086.34 51.7470   7
  -2   0   6 975.874 40.4413   6
   2   0   8 1860.80 89.0800   4
   2   0   8 1819.04 100.194   3
  -2   0   8 1906.52 70.1889   8
  -2   0   8 1820.70 54.0680   6
   2   0  10 5089.10 176.257   4
  -2   0  10 5241.71 146.120   8
   2   0  10 6037.52 181.695   9
   2   0  10 6415.01 170.919   7
   2   0  12 165.217 33.2384   4
   2   0  12 155.252 35.5279   3
  -2   0  12 188.926 27.1485   7
   2   0  12 166.549 35.4022   9
  -2   0  12 188.438 27.1695   8
   2   0  12 237.131 33.8778   7
   2   0  14 10.1664 17.1289   4
   2   0  14 20.1399 17.9974   1
   2   0  14-1.95338 23.3862   9
   2   0  14 33.9900 13.8780   8
  -2   0  14 14.6018 14.4807   8
   2   0  14 34.9702 21.0544   7
   2   0  16 1772.14 118.883   3
   2   0  16 1966.21 101.927   1
   2   0  16 2070.05 131.150   9
  -2   0  16 1739.70 93.6370   8
   2   0  16 1636.76 83.9127   8
   2   0  18 547.955 64.0950   4
   2   0  18 634.003 74.7097   3
   2   0  18 707.826 58.9232   1
   2   0  18 838.649 90.9565   9
  -2   0  18 682.803 62.3003   7
  -2   0  18 680.889 64.0255   8
   2   0  18 616.282 55.1729   8
   2   0  18 965.538 82.5599   7
   2   0  20 491.288 61.4247   4
  -2   0  20 336.436 59.0999   4
   2   0  20 407.606 43.3770   1
  -2   0  20 451.689 54.5674   7
   2   0  20 502.882 66.7753   7
  -2   0  22 334.421 58.6187   4
   2   0  22 344.969 54.3303   4
   2   0  22 351.447 62.7415   3
  -2   0  22 285.705 52.1394   3
   2   0  22 423.817 43.4613   1
   2   0  24 232.882 47.7683   4
  -2   0  24 298.815 57.3245   4
  -2   0  24 216.578 47.8656   3
  -2   1 -11 1639.09 83.4679   7
  -2  -1 -11 1745.64 80.7789   7
  -2  -1  -9 4593.15 129.360   7
  -2   1  -9 4804.62 96.0488   5
  -2   1  -7 5899.83 167.202   4
   2   1  -7 4391.29 138.985   9
  -2   1  -7 4972.89 121.135   7
  -2  -1  -7 4983.81 113.788   7
   2  -1  -7 4361.48 139.702   9
  -2   1  -7 5121.97 90.6312   5
  -2  -1  -7 5211.51 101.759   6
  -2   1  -5 3348.31 102.184   4
  -2  -1  -5 3283.41 117.817   4
  -2   1  -5 3223.69 121.218   3
   2   1  -5 3113.72 68.8145   1
  -2   1  -5 2961.98 84.1347   7
   2   1  -5 3311.58 90.9874   8
   2  -1  -5 2883.02 82.0891   6
  -2  -1  -5 3029.95 82.4829   7
  -2   1  -5 2715.49 68.4749   5
   2   1  -3 17308.9 292.927   8
   2  -1  -3 17570.3 285.374   6
  -2  -1  -3 16570.7 282.444   7
   2   1  -1 144.849 11.9041   4
  -2   1  -1 157.049 13.0051   4
  -2  -1  -1 212.612 17.7311   4
   2  -1  -1 182.360 13.1370   2
  -2  -1  -1 152.976 17.7393   3
   2   1  -1 147.419 19.3940   8
   2  -1  -1 168.677 16.3935   6
  -2   1   1 135.828 11.6521   2
   2  -1   1 118.705 11.1620   4
   2   1   1 85.4862 13.8495   3
  -2  -1   1 124.109 11.1947   4
   2  -1   1 92.5301 12.7813   6
  -2  -1   3 17585.3 316.523   8
   2  -1   3 18622.2 312.108   7
   2   1   5 2557.31 94.0577   4
   2  -1   5 2636.04 83.2534   4
   2  -1   5 2651.24 101.582   3
  -2  -1   5 2771.26 85.9328   8
   2  -1   5 2953.61 88.9269   7
   2   1   5 2541.16 81.9411   7
  -2   1   5 2599.82 67.2120   5
   2  -1   5 2957.68 78.6279   6
   2  -1   7 4780.49 138.961   4
   2   1   7 4298.46 152.078   4
   2  -1   7 4927.23 162.128   3
  -2  -1   7 5242.97 137.055   8
   2   1   7 6022.52 144.068   7
  -2   1   7 4741.30 105.269   5
   2  -1   7 5760.27 146.008   7
   2  -1   7 6399.56 132.092   6
   2   1   9 4097.86 153.568   4
   2  -1   9 4545.79 142.372   4
   2  -1   9 4324.31 162.672   3
  -2  -1   9 4543.94 133.176   8
   2  -1   9 4523.96 116.901   8
  -2   1   9 4670.75 94.6001   5
  -2  -1   9 4508.81 110.710   6
   2   1   9 5127.96 141.361   7
   2  -1   9 5388.30 149.702   7
   2   1  11 1290.91 88.0168   4
   2  -1  11 1549.13 86.7052   4
   2  -1  11 1734.39 92.4895   1
   2  -1  11 1545.56 96.2050   3
  -2   1  11 1580.33 69.4831   8
  -2  -1  11 1719.62 79.7637   8
   2  -1  11 1555.94 92.3355   9
   2   1  11 1783.80 98.3274   9
   2  -1  11 1555.75 67.6115   8
   2  -1  11 1907.99 90.3058   7
   2   1  11 1811.55 84.5628   7
   2  -1  13 3986.38 151.860   4
   2   1  13 3565.77 158.571   4
   2  -1  13 3950.00 168.240   3
  -2   1  13 3796.03 126.963   8
  -2  -1  13 3982.61 139.061   8
  -2  -1  13 4085.99 138.224   7
   2   1  13 4437.44 177.841   9
   2  -1  13 4162.22 172.113   9
   2  -1  13 3941.35 125.900   8
   2   1  13 4600.81 154.821   7
   2  -1  13 5069.38 164.880   7
   2   1  15 297.572 47.4109   4
   2  -1  15 324.162 50.0599   3
   2   1  15 276.436 51.2290   3
   2  -1  15 340.834 43.6426   1
   2   1  15 514.766 52.4497   1
  -2   1  15 284.083 35.6204   8
   2   1  15 415.745 59.9448   9
  -2  -1  15 333.429 41.8653   8
   2  -1  15 332.552 52.4128   9
  -2  -1  15 353.793 41.3960   7
   2  -1  15 332.092 36.7622   8
   2  -1  15 425.234 50.4490   7
   2  -1  17 12.0549 17.2816   4
   2  -1  17 15.3840 20.9742   3
   2   1  17 19.7118 26.2951   3
   2  -1  17 32.6293 19.5365   1
   2   1  17 22.6308 18.9430   1
   2   1  17 23.2026 15.3846   8
   2   1  17 44.6439 33.1784   9
  -2   1  17 2.71951 14.3822   8
   2  -1  17 3.97757 14.9956   8
  -2   1  17 13.5116 16.9363   7
  -2  -1  17 17.6193 19.8387   8
   2  -1  17 35.5124 28.3907   9
   2   1  17 26.6102 22.6782   7
   2   1  19 1141.55 96.1193   4
  -2  -1  19 1065.29 95.7350   4
   2  -1  19 1195.29 88.7234   4
   2  -1  19 1188.26 75.1177   1
   2   1  19 1278.10 77.8288   1
   2   1  19 1057.90 102.219   3
   2   1  19 1203.08 77.9572   8
   2  -1  19 1217.15 83.5718   8
  -2  -1  19 1447.44 94.1060   7
  -2   1  19 1293.33 84.4441   7
   2  -1  19 1607.26 112.048   7
   2   1  19 1633.26 112.185   7
   2  -1  21 16.7182 17.3400   1
   2  -1  21 23.2116 26.3364   3
  -2  -1  21 22.1073 23.5566   3
   2   1  21 13.2709 16.2775   1
   2   1  21 16.5209 25.1584   4
   2  -1  21 3.87862 21.7780   4
  -2   1  21 8.68926 27.7096   4
  -2  -1  21 14.2678 24.6180   4
  -2   1  21 16.4245 23.5569   7
  -2  -1  21 5.70710 22.1503   7
   2   1  21 12.5793 27.9374   7
   2   1  23 205.682 47.5625   4
  -2   1  23 137.758 45.5252   4
  -2  -1  23 136.257 39.4233   4
   2  -1  23 210.053 42.4891   4
  -2   1  23 130.630 38.7425   3
   2  -1  23 140.710 42.9053   3
  -2  -1  23 145.561 39.1736   3
  -2  -1  25 144.906 40.5047   4
   2  -1  25 118.015 34.1958   4
  -2  -2 -12 1082.49 64.1005   7
  -2   2 -10 7964.46 115.582   5
  -2  -2 -10 7890.68 113.956   6
  -2   2  -8 1529.32 69.8823   7
   2  -2  -8 1437.00 80.4330   9
  -2  -2  -8 1604.53 62.0136   7
   2   2  -8 1545.59 81.8366   9
   2  -2  -8 1598.11 54.9187   6
  -2   2  -8 1744.54 50.7189   5
  -2   2  -6 302.199 31.9175   4
   2   2  -6 352.721 27.0300   1
  -2   2  -6 323.549 41.8064   3
   2   2  -6 282.879 28.5745   8
   2  -2  -6 242.153 29.5541   9
  -2  -2  -6 245.863 21.6497   7
  -2   2  -6 296.272 19.9029   5
   2  -2  -6 292.962 21.7707   6
  -2   2  -4 8452.69 168.236   4
  -2  -2  -4 8720.32 211.789   4
  -2   2  -4 8311.70 201.889   3
   2   2  -4 8823.11 193.920   8
  -2   2  -4 8268.49 157.896   5
  -2  -2  -4 8278.24 167.024   7
  -2  -2  -2 3755.03 105.133   4
  -2   2  -2 4256.59 86.7767   4
   2   2  -2 3915.70 80.0348   4
   2   2  -2 3652.33 122.559   8
  -2   2  -2 4025.71 91.6191   7
  -2   2  -2 3520.84 86.0234   5
   2  -2  -2 3690.48 91.4051   5
  -2   2   0 592.811 27.6193   2
  -2   2   0 499.543 22.6116   4
   2   2   0 556.181 27.4518   4
  -2  -2   0 472.434 25.5695   4
  -2   2   0 547.790 25.8597   7
   2  -2   0 551.039 28.7856   5
  -2  -2   2 4115.47 84.9120   4
  -2   2   2 4510.19 91.2637   2
   2  -2   2 4230.00 101.764   8
   2  -2   2 4435.76 100.657   5
   2  -2   4 7518.92 156.314   4
   2  -2   4 8702.85 160.652   8
  -2  -2   4 8626.49 206.163   8
   2  -2   4 8677.58 176.181   7
  -2   2   4 7882.75 152.209   5
   2  -2   4 7314.31 155.543   5
   2  -2   6 404.373 39.3406   3
   2   2   6 350.401 38.5223   4
   2  -2   6 351.032 27.6976   4
   2  -2   6 441.885 41.2642   1
   2  -2   6 442.762 35.3045   7
   2  -2   6 405.696 27.8184   8
  -2  -2   6 449.295 38.5670   8
  -2   2   6 365.056 22.2903   5
   2   2   6 423.818 31.1020   7
   2  -2   8 2109.59 79.6611   4
   2   2   8 1507.50 90.2566   4
   2  -2   8 2224.17 101.787   1
   2  -2   8 2040.28 99.4338   3
   2  -2   8 2312.78 90.8294   7
  -2  -2   8 2121.29 90.6446   8
   2  -2   8 2261.46 75.9301   8
   2   2   8 2041.61 79.7461   7
   2  -2   8 2649.78 72.5404   6
  -2   2   8 1975.86 56.6316   5
   2   2  10 6064.47 213.933   4
   2  -2  10 7185.05 193.078   4
   2  -2  10 6950.70 216.610   3
   2  -2  10 8480.12 217.771   1
   2  -2  10 7012.80 175.982   8
   2  -2  10 7478.55 209.435   9
  -2  -2  10 7053.17 196.124   8
   2  -2  10 8504.90 209.784   7
   2   2  10 7894.15 221.489   9
   2   2  10 8889.93 203.086   7
   2   2  12 1022.15 83.3859   4
   2  -2  12 1366.69 75.8119   4
   2  -2  12 1187.86 86.3596   3
   2  -2  12 1336.24 83.7879   1
  -2  -2  12 1228.04 75.8097   8
   2  -2  12 1181.78 66.3813   8
   2  -2  12 1487.99 83.9811   7
   2  -2  12 1340.41 87.5010   9
   2   2  12 1287.86 90.2929   9
  -2  -2  12 1236.74 49.3124   6
   2   2  12 1486.20 79.3783   7
   2   2  14 1381.32 101.213   4
   2  -2  14 1716.56 92.4838   1
   2  -2  14 1560.01 103.402   3
  -2  -2  14 1735.44 94.8277   8
  -2  -2  14 1762.11 90.0039   7
   2  -2  14 1619.28 82.9985   8
   2  -2  14 1937.75 103.701   7
   2   2  14 1797.58 116.963   9
  -2   2  14 1474.26 74.7579   8
   2  -2  14 1723.20 108.711   9
  -2  -2  14 1555.51 38.3399   5
   2   2  16 1861.21 123.514   4
   2  -2  16 2278.68 111.550   4
   2  -2  16 1843.44 117.982   3
   2  -2  16 1750.69 95.0427   1
  -2   2  16 1917.99 94.2791   8
  -2   2  16 2213.00 99.6980   7
   2  -2  16 2058.22 102.321   8
  -2  -2  16 2195.27 108.324   7
  -2  -2  16 2162.19 115.502   8
   2   2  16 2434.31 145.350   9
   2  -2  16 2404.85 137.706   9
   2  -2  16 2401.29 126.161   7
   2   2  16 2577.39 125.928   7
   2  -2  18 1476.99 93.0913   4
   2   2  18 1301.49 111.861   3
   2  -2  18 1314.92 80.0721   1
  -2  -2  18 1178.78 87.9929   3
   2   2  18 1581.10 88.9075   1
  -2   2  18 1332.07 83.7033   8
   2  -2  18 1378.58 90.0461   8
   2  -2  18 1620.07 120.251   9
  -2  -2  18 1532.26 95.5551   7
  -2   2  18 1578.43 88.4469   7
  -2  -2  18 1367.96 100.690   8
   2   2  18 1345.04 77.9761   8
   2   2  18 1766.66 130.191   9
   2   2  18 1874.73 114.605   7
  -2  -2  20 1693.88 115.317   4
   2   2  20 1795.89 128.260   4
   2  -2  20 1897.91 108.704   4
  -2  -2  20 1525.32 105.098   3
   2   2  20 1645.14 131.496   3
   2   2  20 2024.15 96.9536   1
   2  -2  20 1799.81 94.0022   1
   2  -2  20 1761.04 123.337   3
  -2  -2  20 2159.64 118.189   7
  -2   2  20 2195.69 112.838   7
   2   2  20 2413.39 136.006   7
   2  -2  20 2265.75 138.266   7
  -2   2  22 211.369 53.1134   4
   2   2  22 282.526 53.8545   4
   2  -2  22 289.632 44.9558   4
  -2  -2  22 256.234 47.4672   4
   2   2  22 232.092 34.2089   1
   2  -2  22 241.014 51.2935   3
   2  -2  22 327.893 41.2616   1
  -2  -2  22 255.549 45.9848   3
  -2   2  22 375.681 52.2645   7
   2   2  22 276.005 59.7664   7
   2  -2  24 381.986 52.1474   4
  -2  -2  24 343.757 54.1107   4
  -2  -2  24 275.052 50.0221   3
   2   3 -11 724.294 68.3873   1
  -2  -3 -11 6968.13 144.992   7
   2   3  -9 13836.7 289.180   9
  -2  -3  -9 15112.0 234.201   7
   2  -3  -9 13093.4 286.093   9
   2  -3  -9 14056.4 207.857   6
  -2   3  -9 14954.4 213.387   5
  -2   3  -7 10953.3 238.706   4
   2   3  -7 11818.7 225.153   1
  -2   3  -7 11214.7 285.789   3
   2  -3  -7 9025.81 236.120   9
  -2  -3  -7 10327.6 202.622   7
   2   3  -7 9396.62 236.735   9
  -2   3  -7 10404.7 198.484   5
  -2   3  -5 8632.79 174.686   4
  -2   3  -5 8798.04 218.550   3
  -2   3  -5 8478.88 172.112   8
   2   3  -5 7619.57 204.445   8
   2  -3  -5 7898.74 166.227   5
  -2   3  -5 8251.32 167.935   5
  -2  -3  -5 8428.05 170.670   7
  -2   3  -3 34738.1 540.931   4
  -2  -3  -3 35837.2 611.524   4
  -2   3  -3 34527.4 557.632   7
  -2   3  -3 31372.7 554.196   8
   2   3  -3 30779.6 620.394   8
   2  -3  -3 36703.2 557.081   5
  -2   3  -3 36533.3 555.307   5
  -2   3  -1 18360.1 309.744   2
  -2  -3  -1 17460.3 323.336   4
   2   3  -1 17199.7 295.683   4
  -2   3  -1 17314.4 290.871   4
   2  -3  -1 18311.8 311.827   5
   2  -3   1 16315.4 285.723   2
  -2   3   1 18280.4 283.490   2
   2   3   1 15969.1 295.094   4
  -2  -3   1 15837.2 278.458   4
   2  -3   1 19698.4 299.873   5
  -2   3   1 17913.7 291.367   5
   2  -3   1 12865.9 278.639   7
  -2   3   1 16754.8 271.822   7
   2   3   3 29582.8 567.180   4
   2  -3   3 31828.5 517.722   4
  -2  -3   3 32031.5 515.676   4
   2  -3   3 35660.8 582.291   8
  -2   3   3 33609.5 535.714   5
   2  -3   5 7018.49 141.138   4
  -2  -3   5 7871.77 219.080   8
   2  -3   5 6994.34 167.458   7
   2  -3   5 7490.58 176.619   8
  -2   3   5 7063.20 144.418   5
   2  -3   5 7535.18 151.489   5
   2   3   7 7197.16 233.649   4
   2  -3   7 9950.34 197.285   4
   2  -3   7 7453.12 221.655   1
   2  -3   7 10380.7 225.089   7
   2  -3   7 10813.6 221.875   8
  -2  -3   7 10199.0 258.734   8
  -2   3   7 9584.55 182.753   5
   2  -3   7 10627.2 198.117   5
   2  -3   9 14448.4 324.673   3
   2  -3   9 15510.6 280.839   4
   2  -3   9 15294.0 293.853   8
  -2  -3   9 15891.5 332.308   8
   2  -3   9 16639.5 317.284   7
   2   3   9 16989.7 295.055   7
  -2   3   9 14705.6 241.727   5
   2  -3   9 15534.6 258.395   5
   2  -3  11 6855.93 215.405   3
   2  -3  11 7236.61 181.721   4
   2  -3  11 7625.22 212.174   1
   2   3  11 7158.37 225.914   9
  -2  -3  11 7458.16 217.236   8
   2  -3  11 6725.51 207.910   9
   2  -3  11 7817.81 211.572   7
   2  -3  11 7005.95 192.340   8
   2   3  11 7902.23 197.185   7
   2   3  13 5555.88 227.380   4
   2  -3  13 6467.12 221.488   3
   2  -3  13 7083.43 202.613   8
  -2   3  13 7224.55 179.148   7
   2   3  13 8060.36 255.590   9
   2  -3  13 7285.97 233.494   9
   2  -3  13 8070.23 227.707   7
  -2  -3  13 7319.10 204.249   7
  -2  -3  13 7174.67 226.524   8
   2  -3  13 8828.88 176.627   6
   2  -3  15 2261.74 122.376   3
   2  -3  15 2439.62 102.906   4
   2   3  15 1580.37 116.521   4
  -2  -3  15 2091.39 102.723   3
   2  -3  15 2140.40 101.860   1
  -2   3  15 2553.50 96.7166   7
   2  -3  15 2647.07 136.579   9
   2  -3  15 2546.00 114.143   8
   2  -3  15 2593.89 126.148   7
  -2  -3  15 2477.92 110.208   7
  -2  -3  15 2267.41 122.095   8
   2   3  15 2682.53 146.667   9
   2   3  15 2764.63 120.095   7
  -2  -3  15 2260.87 49.2056   5
   2   3  17 889.334 89.1970   4
   2  -3  17 1093.88 73.2599   4
   2  -3  17 1027.49 71.4504   1
  -2  -3  17 899.159 72.2384   3
  -2   3  17 1092.35 69.1986   7
  -2  -3  17 954.918 84.6359   8
   2   3  17 1253.51 108.925   9
   2  -3  17 985.654 77.2146   8
  -2   3  17 894.587 64.6292   8
   2  -3  17 1222.53 99.4107   9
   2   3  17 1186.32 86.6619   7
   2  -3  17 1283.08 96.2444   7
   2  -3  19 4097.68 153.550   4
   2  -3  19 3601.08 174.348   3
  -2  -3  19 3301.12 157.656   4
   2   3  19 4265.68 151.731   1
   2  -3  19 3775.53 144.002   1
   2   3  19 3165.24 186.003   3
  -2  -3  19 3392.96 152.950   3
  -2   3  19 4673.30 158.695   7
  -2  -3  19 4595.35 177.488   7
   2  -3  19 3973.59 171.821   8
   2   3  19 5020.94 193.979   7
   2  -3  21 923.760 68.4710   1
   2   3  21 754.845 92.8018   3
   2   3  21 840.235 59.3162   1
  -2  -3  21 693.683 69.0619   3
   2  -3  21 857.720 70.0478   4
   2  -3  21 812.352 82.6677   3
  -2  -3  21 700.277 69.4847   4
  -2   3  21 577.568 84.3312   4
   2   3  21 858.989 90.9122   4
  -2   3  21 1107.92 80.5495   7
   2   3  21 1036.49 93.4071   7
   2  -3  23 12.9809 23.6695   3
  -2  -3  23 6.15776 20.0220   3
   2  -3  23 7.01974 21.3968   1
  -2   3  23-3.38981 33.6517   4
  -2  -3  23 23.5688 22.8077   4
   2   3  23 8.66755 25.8552   4
   2  -3  23 8.49707 20.8276   4
  -2   3  23 26.4174 26.9831   7
  -2  -3  25 610.254 69.9230   3
   2  -3  25 765.739 67.9272   4
   2  -4 -12 1839.94 113.716   9
  -2  -4 -12 2125.26 87.5420   7
   2   4 -10 9298.59 245.317   9
   2  -4 -10 8332.47 236.135   9
  -2   4  -8 7193.66 190.758   4
   2   4  -8 8167.81 187.794   1
  -2   4  -8 7546.83 232.249   3
   2   4  -8 6294.17 187.851   9
  -2  -4  -8 6676.60 149.718   7
   2  -4  -8 5478.90 183.240   9
   2  -4  -8 6568.58 146.729   5
  -2   4  -8 7147.81 155.757   5
  -2   4  -6 733.802 39.7401   4
  -2   4  -6 775.974 58.6505   3
  -2   4  -6 685.215 42.1075   8
   2   4  -6 631.647 45.5896   9
   2  -4  -6 554.962 44.6386   9
  -2  -4  -6 680.557 35.1316   7
  -2   4  -6 665.718 38.3142   5
   2  -4  -6 659.258 35.4261   5
  -2   4  -4 7866.50 146.014   4
  -2   4  -4 7543.22 167.356   7
  -2   4  -4 7536.64 161.101   5
   2  -4  -4 7784.57 161.657   5
  -2  -4  -2 12981.0 266.971   4
  -2   4  -2 11827.0 202.583   4
   2   4  -2 12666.2 204.716   4
   2  -4  -2 9653.81 220.191   1
  -2   4  -2 12251.3 228.842   2
  -2   4  -2 11273.4 254.805   8
  -2   4  -2 11078.9 217.705   7
   2  -4  -2 12980.5 234.356   5
  -2   4  -2 12465.5 228.955   5
   2   4   0 268.477 22.3593   4
  -2   4   0 264.537 20.8377   2
  -2   4   0 289.443 32.7597   1
   2  -4   0 289.728 27.5875   1
   2  -4   0 246.763 19.6980   2
  -2   4   0 286.567 18.4265   7
   2  -4   0 279.630 24.5758   5
  -2   4   2 14008.2 264.849   1
  -2   4   2 13136.4 229.442   2
   2  -4   2 11437.5 232.934   2
   2   4   2 11713.3 253.780   4
  -2  -4   2 12116.3 218.503   4
  -2   4   2 12675.8 236.681   5
   2  -4   2 13394.0 244.948   5
  -2   4   2 12585.5 208.116   7
   2  -4   4 6147.68 128.559   4
  -2  -4   4 6446.70 123.927   4
   2   4   4 5726.10 177.865   4
   2  -4   4 7373.09 185.649   1
   2  -4   4 8221.17 211.465   8
   2  -4   4 7518.97 166.826   7
   2  -4   4 7759.45 159.620   5
  -2   4   4 7381.04 151.937   5
  -2  -4   6 861.495 30.1671   4
  -2  -4   6 817.574 33.4284   3
   2  -4   6 785.197 34.5131   4
   2  -4   6 767.283 56.5399   1
   2  -4   6 806.198 51.2858   7
  -2  -4   6 862.584 79.4862   8
   2  -4   6 974.492 66.2580   8
  -2   4   6 776.544 39.2035   5
   2  -4   6 875.441 44.4076   5
   2  -4   8 7448.58 158.955   4
   2  -4   8 6220.06 190.859   1
  -2  -4   8 6923.13 159.205   3
   2  -4   8 8503.96 214.879   8
  -2  -4   8 8233.79 248.866   8
   2  -4   8 8237.71 202.078   7
  -2   4   8 6986.24 153.889   5
   2  -4   8 7827.86 165.065   5
   2  -4  10 10768.5 216.883   4
  -2  -4  10 11178.7 298.137   8
   2   4  10 10504.2 271.120   9
   2  -4  10 10744.2 257.358   7
   2  -4  10 10392.2 255.369   8
   2  -4  10 9678.65 246.987   9
  -2  -4  10 8549.22 213.470   3
   2  -4  10 9544.47 246.070   1
   2  -4  12 2469.35 118.366   3
  -2   4  12 2559.42 84.6071   7
  -2  -4  12 2577.71 134.363   8
   2  -4  12 2634.92 118.400   7
   2  -4  12 2615.88 123.596   9
   2   4  12 2475.26 131.128   9
   2  -4  12 2587.06 116.679   8
   2  -4  14 2339.13 121.391   3
   2  -4  14 2467.50 98.4812   4
   2   4  14 1557.57 118.996   4
  -2  -4  14 1884.62 93.2970   3
  -2  -4  14 2391.27 134.604   8
   2   4  14 2416.36 140.102   9
   2  -4  14 2425.03 120.975   7
  -2  -4  14 2278.84 107.346   7
   2  -4  14 2244.42 115.792   8
   2  -4  14 2404.68 126.496   9
  -2   4  14 2430.82 88.9275   7
   2  -4  14 3129.06 91.5049   6
   2   4  14 2509.99 110.299   7
  -2  -4  14 2091.93 65.9842   5
   2  -4  16 4182.74 138.641   4
   2   4  16 2912.46 168.031   4
  -2  -4  16 3425.14 136.108   3
   2  -4  16 3537.44 138.604   1
   2  -4  16 3927.65 164.687   8
   2  -4  16 4163.49 179.709   9
   2  -4  16 4387.01 175.943   7
  -2  -4  16 3994.93 182.155   8
  -2   4  16 4403.33 134.060   7
  -2  -4  16 4214.17 157.599   7
   2   4  16 4726.67 208.407   9
  -2  -4  16 3883.18 84.1096   5
   2   4  16 4672.15 164.712   7
  -2  -4  16 2754.52 81.5645   6
   2   4  18 1890.14 138.980   4
  -2  -4  18 2271.24 117.847   4
   2  -4  18 2451.78 137.463   3
   2  -4  18 2647.07 113.821   4
   2  -4  18 2531.54 116.249   1
  -2  -4  18 2087.40 112.153   3
  -2  -4  18 2613.97 154.933   8
   2   4  18 3160.29 180.446   9
  -2   4  18 3054.58 118.638   7
  -2   4  18 2445.55 111.614   8
   2  -4  18 2522.24 137.450   8
   2  -4  18 2793.77 155.238   9
   2   4  18 3251.72 145.880   7
   2  -4  18 2907.81 151.762   7
   2  -4  20 1690.11 95.2553   1
  -2  -4  20 1404.50 93.6173   3
   2   4  20 1827.25 94.6057   1
   2   4  20 1259.90 120.993   3
  -2  -4  20 1501.77 94.8752   4
   2  -4  20 1528.99 110.223   3
   2  -4  20 1743.39 94.8220   4
   2   4  20 1976.44 124.288   7
  -2   4  20 2128.90 105.767   7
   2   4  22 773.105 55.0212   1
   2  -4  22 1062.36 82.1171   1
  -2  -4  22 676.095 68.3416   3
  -2   4  22 654.659 94.3514   4
  -2  -4  22 804.035 69.3288   4
   2   4  22 757.957 90.8044   4
   2  -4  22 905.370 67.9537   4
  -2   4  22 1097.21 81.4393   7
  -2  -4  24 644.605 63.2879   4
  -2  -4  24 583.784 65.5278   3
   2  -4  24 726.440 62.8550   4
  -2  -5 -15 399.712 26.0137   6
   2  -5 -13 3002.68 155.257   9
   2  -5 -13 3229.48 96.4760   6
   2   5 -11 1719.16 103.659   1
   2  -5 -11 1824.00 108.804   9
   2   5  -9 3294.64 133.948   9
  -2  -5  -9 3370.82 94.2528   7
  -2   5  -9 3462.10 118.316   8
   2  -5  -9 3344.98 96.2996   5
  -2   5  -7 3509.36 99.1463   4
   2   5  -7 3993.65 123.869   1
  -2   5  -7 3791.98 143.188   3
  -2   5  -7 2947.90 106.530   8
   2  -5  -7 2645.26 110.706   9
   2   5  -7 3083.62 113.978   9
  -2  -5  -7 3136.94 86.9523   7
   2  -5  -7 3036.47 91.1076   5
  -2   5  -7 3352.07 100.997   5
  -2   5  -5 4407.66 96.6453   4
  -2   5  -5 3803.66 126.889   8
   2  -5  -5 3472.87 117.665   9
   2  -5  -5 4384.11 117.714   5
  -2   5  -3 9223.22 166.512   4
  -2   5  -3 9104.96 194.358   7
   2  -5  -3 9443.77 200.297   5
  -2   5  -3 9177.67 198.083   5
  -2  -5  -1 8135.91 198.039   4
  -2   5  -1 8035.58 222.510   1
  -2   5  -1 8258.98 166.736   2
  -2   5  -1 8673.72 161.704   7
   2  -5  -1 8697.20 184.282   5
  -2  -5   1 7840.23 163.344   4
   2   5   1 6845.74 166.991   4
  -2   5   1 6659.14 183.789   1
   2  -5   1 7211.09 177.888   1
   2  -5   1 6951.64 152.956   2
  -2   5   1 7518.33 154.066   2
  -2   5   1 7339.80 136.708   7
   2  -5   1 7591.23 173.526   5
  -2   5   1 7733.22 168.178   5
  -2  -5   3 8613.61 160.375   4
   2   5   3 7814.31 211.847   4
   2  -5   3 8122.25 181.779   2
   2  -5   3 9416.21 193.177   7
  -2   5   3 8767.47 187.549   5
   2  -5   3 9004.19 194.320   5
  -2  -5   5 3975.42 78.2230   4
   2  -5   5 3938.42 80.3327   4
  -2  -5   5 3320.09 65.7756   2
   2  -5   5 4250.09 135.935   1
   2  -5   5 3630.17 110.229   2
   2  -5   5 4358.15 165.872   8
   2  -5   5 4097.98 121.863   7
   2  -5   5 4040.65 112.168   5
  -2   5   5 3993.34 106.494   5
  -2  -5   7 3468.10 70.8314   4
   2  -5   7 3510.80 80.0455   4
   2  -5   7 2796.09 115.612   1
  -2  -5   7 3482.63 172.698   8
  -2   5   7 2890.49 64.7734   7
   2  -5   7 3096.50 114.287   7
   2  -5   7 3493.62 153.437   8
  -2   5   7 2825.22 90.5855   5
   2  -5   7 3097.70 98.9075   5
   2  -5   9 3517.09 130.517   1
   2  -5   9 3140.41 127.137   7
   2   5   9 3527.98 139.331   9
   2  -5   9 3243.81 120.948   9
   2  -5   9 3859.76 158.514   8
  -2  -5   9 3546.06 180.800   8
   2  -5   9 3961.31 111.071   5
   2  -5  11 1998.07 99.0419   1
   2   5  11 2253.44 119.535   9
  -2  -5  11 2491.06 144.226   8
   2  -5  11 2310.89 110.213   7
  -2   5  11 2134.90 67.5152   7
   2  -5  11 2416.16 124.361   8
   2  -5  11 2041.65 103.598   9
   2  -5  13 4138.97 120.155   4
  -2   5  13 4086.17 111.065   7
   2  -5  13 3976.29 169.129   8
   2   5  13 4098.67 179.491   9
   2  -5  13 3842.07 159.750   9
  -2  -5  13 4042.79 192.827   8
   2  -5  13 3810.20 157.506   7
   2  -5  13 3949.41 113.013   5
   2  -5  15 336.376 35.0175   4
  -2  -5  15 263.087 36.6907   4
   2   5  15 270.617 55.5351   4
   2  -5  15 305.720 41.5234   1
  -2  -5  15 286.393 36.3768   3
   2  -5  15 371.043 52.7120   9
  -2   5  15 351.397 33.3142   7
   2  -5  15 328.691 49.3755   7
  -2  -5  15 345.316 44.7227   7
   2   5  15 341.845 58.0602   9
   2  -5  15 371.781 53.4600   8
  -2  -5  15 289.342 56.8900   8
   2  -5  15 372.118 32.9925   6
  -2  -5  15 316.455 25.1817   5
   2   5  17 201.464 50.3702   4
  -2  -5  17 186.547 32.5839   4
  -2  -5  17 169.951 31.7276   3
   2  -5  17 202.909 29.7478   4
   2  -5  17 201.013 34.7536   1
  -2  -5  17 299.140 44.3211   7
   2  -5  17 231.582 45.5802   7
   2  -5  17 214.754 45.7590   9
  -2  -5  17 220.409 53.1084   8
   2   5  17 196.056 51.9166   9
   2  -5  17 268.130 48.5821   8
  -2  -5  17 215.672 19.4278   5
  -2   5  17 247.603 32.8666   7
  -2  -5  17 167.587 20.9862   6
   2  -5  19 2087.44 109.237   1
  -2  -5  19 1728.44 99.5231   3
   2   5  19 1797.20 141.509   4
   2  -5  19 2162.43 96.6397   4
  -2  -5  19 1749.46 95.5620   4
  -2   5  19 2436.73 106.876   7
   2  -5  21 312.434 48.4845   1
   2   5  21 286.122 39.0725   1
  -2  -5  21 253.402 38.2578   4
  -2  -5  21 239.071 40.9918   3
   2  -5  21 270.370 36.9680   4
  -2   5  21 323.593 43.8635   7
   2  -5  23 264.921 37.7421   4
  -2  -5  23 221.074 36.3178   4
  -2  -5  23 186.922 39.3036   3
  -2  -6 -16 1484.59 39.0396   5
  -2  -6 -14 210.289 20.4855   5
   2  -6 -14 158.510 21.1215   6
   2  -6 -12 549.573 36.0167   5
  -2  -6 -12 625.569 41.3070   5
   2   6 -10 3101.51 139.275   1
   2   6 -10 2864.63 127.311   9
  -2   6 -10 2999.29 117.379   8
  -2  -6  -8 618.044 34.2033   7
   2  -6  -8 426.914 46.0086   9
  -2   6  -8 484.078 45.3623   8
   2   6  -8 564.234 49.7868   9
   2  -6  -8 580.956 39.2961   5
  -2   6  -6 5632.67 115.112   4
  -2   6  -6 6131.56 176.340   3
   2   6  -6 7391.50 189.242   1
  -2   6  -6 3827.48 186.543   1
  -2   6  -6 4974.13 159.376   8
   2  -6  -6 4079.31 137.409   9
   2   6  -6 5200.30 144.717   9
  -2  -6  -6 4618.66 117.270   7
   2  -6  -6 5334.22 141.859   5
   2   6  -4 668.932 22.7821   4
  -2   6  -4 649.528 27.1256   4
  -2   6  -4 616.628 57.3849   8
   2  -6  -4 602.941 42.8883   5
  -2   6  -4 624.059 42.3806   5
  -2   6  -2 242.298 16.1457   4
   2   6  -2 242.087 18.4566   4
  -2   6  -2 190.090 21.3184   2
   2   6  -2 177.802 11.1147   2
  -2   6  -2 192.172 20.9687   7
  -2   6  -2 209.333 25.5436   5
   2  -6  -2 194.172 25.0572   5
   2   6   0 10431.6 216.028   4
  -2  -6   0 12095.8 250.822   4
   2  -6   0 9755.10 234.099   1
  -2   6   0 10131.9 207.725   2
   2  -6   0 9815.46 207.953   2
  -2   6   0 12315.3 270.872   1
  -2   6   0 11109.4 200.774   7
   2  -6   0 11076.0 233.888   5
  -2  -6   2 318.136 25.8869   4
   2   6   2 299.143 33.0788   4
   2  -6   2 221.050 22.3593   2
  -2   6   2 273.317 32.2152   1
   2  -6   2 280.935 32.1993   1
  -2   6   2 302.859 24.9185   2
   2  -6   2 285.676 26.8519   7
   2  -6   2 255.603 28.7699   5
  -2   6   2 198.743 24.8549   5
  -2  -6   4 558.969 26.1937   4
   2  -6   4 521.358 37.5458   2
   2  -6   4 570.237 41.8532   7
   2  -6   4 530.430 40.1858   5
  -2   6   4 607.030 40.9993   5
  -2  -6   6 4827.85 93.3406   4
   2  -6   6 5133.58 95.5045   4
   2  -6   6 4689.91 134.100   2
   2  -6   6 5054.10 147.868   7
   2  -6   6 4980.66 138.008   5
   2  -6   8 758.285 79.9521   8
   2  -6   8 732.919 50.2246   9
   2   6   8 666.089 54.8667   9
  -2  -6   8 788.283 92.2450   8
   2  -6   8 679.428 55.0071   7
   2  -6   8 687.143 46.0832   5
  -2  -6  10 3310.10 75.5032   4
   2  -6  10 2883.29 124.137   1
   2  -6  10 3559.00 176.674   8
   2  -6  10 3127.91 124.092   9
  -2  -6  10 3679.95 194.623   8
   2  -6  10 3206.64 132.851   7
   2   6  10 3012.82 137.995   9
  -2   6  10 3766.04 78.6153   7
   2  -6  12 692.950 38.4609   4
   2  -6  12 545.295 52.7359   1
   2  -6  12 575.445 57.3182   9
   2  -6  12 589.321 60.6166   7
   2   6  12 579.177 65.1488   9
   2  -6  12 644.853 74.7478   8
  -2   6  12 645.101 33.5521   7
  -2  -6  12 661.812 84.5412   8
   2  -6  12 580.654 41.8596   5
  -2  -6  14 257.557 32.1111   4
   2  -6  14 302.711 28.4884   4
   2  -6  14 208.294 41.0021   7
  -2  -6  14 205.991 35.6759   7
  -2  -6  14 233.869 57.0520   8
   2  -6  14 305.170 47.1331   9
   2  -6  14 295.799 53.3379   8
   2   6  14 275.987 51.3520   9
   2  -6  14 314.179 31.7324   5
  -2   6  14 287.074 26.8320   7
  -2  -6  14 261.139 26.3235   5
   2  -6  16 2478.02 89.5324   4
  -2  -6  16 1965.62 94.8020   3
  -2  -6  16 2033.22 92.8451   4
   2   6  16 1547.11 130.318   4
   2  -6  16 2218.15 112.076   1
   2  -6  16 2233.29 146.391   8
   2  -6  16 2349.80 132.426   7
  -2  -6  16 2470.29 168.716   8
   2   6  16 2559.63 155.538   9
   2  -6  16 2480.89 135.605   9
  -2  -6  16 2368.66 120.395   7
   2  -6  16 3035.71 97.7277   6
  -2   6  16 2519.86 91.7684   7
  -2  -6  16 2308.91 76.9704   5
   2   6  18 93.5792 40.6985   4
   2  -6  18 75.7032 20.1642   4
  -2  -6  18 100.436 23.8756   4
  -2  -6  18 90.6561 26.0701   3
   2  -6  18 87.1160 27.5205   1
   2   6  18 91.2447 41.7323   9
  -2   6  18 131.526 26.4115   7
  -2  -6  18 62.8801 18.6614   6
  -2  -6  18 84.2325 13.7565   5
   2  -6  20 187.005 40.9666   1
   2   6  20 127.309 44.6155   4
  -2  -6  20 140.827 27.1514   4
   2  -6  20 141.873 25.2212   4
  -2   6  20 194.223 34.2270   7
   2  -6  22 776.688 70.5317   1
  -2  -6  22 573.183 49.7869   4
   2  -6  22 667.709 51.5019   4
  -2   6  22 773.958 65.6602   7
  -2  -7 -17 258.778 15.9039   5
   2  -7 -17 267.294 28.2525   6
   2   7 -15 12.0801 33.9942   1
  -2  -7 -15 34.7656 12.1198   5
   2  -7 -15 20.7823 12.9246   6
   2  -7 -13 2074.08 80.0754   5
  -2  -7 -13 2579.53 89.4834   5
   2   7 -11 81.3553 30.2901   1
   2  -7 -11 16.6204 18.3713   9
   2   7  -9 1067.60 72.0983   9
  -2   7  -9 1114.72 73.7499   8
   2  -7  -9 1120.65 60.2266   5
  -2   7  -7 3687.44 138.163   3
  -2   7  -7 3231.19 79.2116   4
  -2   7  -7 2791.07 118.223   8
   2   7  -7 2885.44 107.595   9
   2  -7  -7 2185.19 101.058   9
   2  -7  -7 3037.10 102.809   5
  -2  -7  -7 2609.70 77.5091   7
  -2   7  -5 91.0652 10.8168   4
  -2   7  -5 43.7608 29.5280   1
   2   7  -5 78.4940 24.8651   1
   2   7  -5 68.1941 12.0709   3
   2   7  -5 60.7123 15.0835   9
  -2   7  -5 46.0650 19.7865   8
   2  -7  -5 36.2928 13.1254   9
   2  -7  -5 66.3665 17.7695   5
   2   7  -3 4938.22 98.4590   4
  -2   7  -3 4641.26 96.6610   4
  -2   7  -3 4760.47 129.797   2
   2   7  -3 4598.50 92.5798   2
  -2   7  -3 4494.46 174.818   8
   2  -7  -3 4719.53 141.373   5
  -2   7  -1 910.930 46.3223   2
  -2   7  -1 898.135 69.4126   1
   2   7  -1 915.521 44.8553   4
   2  -7  -1 782.069 52.5352   5
   2   7   1 800.479 51.3051   4
   2  -7   1 758.537 41.8729   2
  -2   7   1 843.041 43.5823   2
  -2   7   1 854.960 63.0006   1
   2  -7   1 873.694 61.3068   1
   2  -7   1 784.376 42.9596   7
   2  -7   1 800.950 53.0042   5
  -2   7   1 751.919 50.3070   5
  -2  -7   3 4882.55 116.490   4
   2   7   3 3712.44 144.769   4
   2  -7   3 4051.81 114.721   2
  -2   7   3 4624.54 119.286   2
  -2   7   3 4430.30 142.131   1
   2  -7   3 4702.19 130.415   7
   2  -7   3 4291.21 135.250   5
  -2   7   5 16.2839 13.8312   1
   2  -7   5 14.9520 10.8450   2
   2   7   5 9.58667 16.7756   4
  -2  -7   5 28.6886 7.49362   4
   2  -7   5 49.3346 15.6094   5
   2  -7   5 4.78427 11.2965   7
   2  -7   7 3010.39 103.498   2
   2  -7   7 2821.31 98.3475   9
   2   7   7 2881.87 113.333   9
   2  -7   7 2804.93 112.813   7
   2  -7   7 2962.50 108.047   5
  -2  -7   9 1241.38 32.6621   4
   2  -7   9 1142.88 36.1899   4
   2  -7   9 1011.10 70.9945   1
  -2  -7   9 1021.24 41.5641   2
   2  -7   9 1424.86 120.472   8
  -2  -7   9 1405.80 124.937   8
   2   7   9 1034.06 74.5814   9
   2  -7   9 1043.35 65.1416   9
   2  -7   9 1079.96 72.9805   7
   2  -7   9 1103.08 62.4527   5
   2  -7  11 36.3523 9.08839   4
  -2  -7  11 17.5203 9.76093   4
  -2  -7  11 20.5496 6.67809   4
  -2   7  11 17.0458 10.5074   1
   2  -7  11 25.5106 18.0904   1
   2   7  11 16.3193 18.2507   9
   2  -7  11 47.0646 20.1927   9
   2  -7  11 17.0079 27.1078   8
  -2  -7  11 60.2062 38.6868   8
   2  -7  11 57.4256 23.8011   7
  -2   7  11 24.8109 7.03152   7
  -2  -7  13 2139.48 76.1727   4
   2  -7  13 2398.58 71.9228   4
  -2  -7  13 2187.11 59.3622   4
   2   7  13 2366.25 136.990   9
   2  -7  13 2340.63 124.380   7
   2  -7  13 2589.55 168.295   8
  -2  -7  13 2270.06 111.618   7
  -2  -7  13 2656.64 184.288   8
   2  -7  13 2364.29 91.6146   5
  -2   7  13 2454.94 68.5436   7
  -2  -7  13 2123.67 84.2214   5
   2  -7  15 59.3019 18.0868   5
   2   7  15 18.0538 26.0538   4
  -2  -7  15 69.5924 16.7130   4
   2  -7  15 73.1083 15.1794   4
   2  -7  15 49.4254 24.0189   1
  -2  -7  15 73.3793 26.7759   7
   2  -7  15 63.5200 36.3856   8
  -2  -7  15 52.2274 41.6578   8
   2   7  15 94.7208 37.5814   9
  -2   7  15 87.0284 16.7603   7
   2  -7  15 43.6144 26.0655   7
  -2  -7  15 77.3686 17.5266   5
   2  -7  17 298.044 28.9168   4
   2   7  17 248.803 59.6048   4
  -2  -7  17 337.128 33.0742   4
   2  -7  17 380.190 52.7095   1
   2   7  17 303.779 60.5160   9
  -2  -7  17 314.203 47.2319   7
  -2  -7  17 300.600 28.5611   5
   2  -7  17 411.399 37.5181   6
  -2   7  17 331.888 33.2408   7
   2  -7  19 638.920 68.7333   1
  -2  -7  19 492.401 40.2096   4
   2   7  19 390.220 72.0667   4
   2  -7  19 520.260 39.0989   4
  -2   7  19 591.121 48.0000   7
  -2  -7  19 540.422 32.8608   5
   2  -7  21 53.7050 27.5965   1
   2   7  21 17.5122 22.5711   1
  -2  -7  21 40.6101 17.5005   4
   2  -7  21 19.3322 15.1978   4
  -2   7  21 36.3819 24.5253   7
  -2  -8 -18 333.170 19.5498   5
   2  -8 -18 428.338 34.6132   6
   2   8 -16 736.865 100.913   1
   2  -8 -16 853.932 51.3502   6
   2   8 -14 228.539 44.6198   8
   2  -8 -14 222.578 27.4274   5
  -2  -8 -14 290.738 30.7080   5
   2   8 -12 324.550 55.6136   1
  -2  -8 -12 253.199 26.3913   7
   2  -8 -12 245.485 29.3012   5
  -2  -8 -12 290.999 34.0897   5
   2   8 -10 3802.88 157.367   1
  -2   8 -10 3577.77 162.417   3
   2   8 -10 3011.48 128.099   9
  -2  -8 -10 2731.62 82.1208   7
   2  -8 -10 2178.47 115.294   9
  -2   8  -8 103.220 29.1033   3
  -2   8  -8-2.95570 35.7457   1
   2   8  -8 92.5459 29.0920   1
   2  -8  -8 97.5503 24.5350   9
   2   8  -8 83.3939 22.0322   9
  -2   8  -8 78.5542 24.5563   8
   2  -8  -8 69.6756 18.8629   5
  -2   8  -6 357.165 60.9687   1
   2   8  -6 386.656 46.3695   1
  -2   8  -6 287.266 43.3159   8
   2  -8  -6 255.243 31.4329   9
   2   8  -6 286.651 31.6104   9
   2  -8  -6 291.802 34.6676   5
   2   8  -4 1870.64 45.7235   4
  -2   8  -4 1861.22 49.2055   4
  -2   8  -4 1633.44 116.734   1
   2   8  -4 1712.23 65.1515   9
   2  -8  -4 1416.33 63.5110   9
  -2   8  -4 1568.39 106.710   8
   2  -8  -4 1719.35 83.1374   5
   2   8  -2 59.2855 8.84366   2
  -2   8  -2 73.5714 16.5245   2
  -2   8  -2 66.5642 27.9234   1
   2  -8  -2 16.5393 12.9747   1
   2   8  -2 22.9195 14.9330   1
   2   8  -2 72.2548 12.4288   4
   2  -8  -2 64.5379 19.1575   5
   2  -8  -2 43.7620 10.1850   7
   2  -8   0 937.550 61.7146   1
   2   8   0 1178.50 59.2433   4
   2  -8   0 987.810 48.2316   7
   2  -8   0 1122.85 66.7646   5
   2   8   2 63.4654 20.8348   4
  -2   8   2 40.6776 13.2775   2
  -2   8   2 56.3897 21.8669   1
   2  -8   2 66.4957 14.4825   2
   2  -8   2 75.2921 16.9820   7
   2  -8   2 50.3868 17.4331   5
   2   8   4 1318.68 88.7103   4
   2  -8   4 1376.09 62.9695   2
  -2   8   4 1647.21 84.7194   1
   2  -8   4 1482.29 73.3839   7
   2  -8   4 1526.98 77.6196   5
   2   8   6 201.766 40.3235   4
   2  -8   6 222.985 28.0465   2
   2   8   6 247.464 31.1573   9
   2  -8   6 237.259 32.6400   7
   2  -8   6 230.309 31.2389   5
  -2  -8   8 51.9878 8.48382   2
   2  -8   8 46.8339 16.8103   2
   2   8   8 45.4316 19.8515   9
   2  -8   8 50.5446 21.2823   7
   2  -8  10 2556.31 123.089   1
  -2  -8  10 2682.29 73.1194   2
  -2   8  10 2334.93 89.2134   1
   2  -8  10 2666.59 123.000   7
   2   8  10 2778.91 134.135   9
  -2  -8  12 246.149 12.5461   4
   2  -8  12 304.071 17.6873   4
   2  -8  12 393.235 48.7881   1
  -2  -8  12 300.095 25.7670   2
   2  -8  12 351.100 70.4618   8
  -2  -8  12 403.821 79.5769   8
   2  -8  12 289.900 45.5473   7
   2   8  12 348.434 52.8369   9
   2  -8  12 336.354 37.3645   5
   2   8  14 124.888 42.7887   4
  -2  -8  14 292.250 16.5216   4
  -2  -8  14 263.566 19.6728   4
   2  -8  14 313.366 20.5943   4
  -2   8  14 266.975 23.9928   1
   2  -8  14 291.780 65.0923   8
  -2  -8  14 285.546 74.5471   8
   2  -8  14 246.640 41.8028   9
   2  -8  14 271.939 48.3009   7
  -2  -8  14 294.683 43.2830   7
   2  -8  14 268.050 32.3900   5
  -2  -8  14 235.076 29.1669   5
   2  -8  16 1243.85 48.2519   4
  -2  -8  16 995.027 43.1979   4
  -2  -8  16 1064.19 37.8597   4
   2  -8  16 1185.18 93.3523   1
  -2  -8  16 1175.72 86.3454   7
   2  -8  16 1123.33 94.7041   7
   2  -8  16 985.124 85.2146   9
  -2  -8  16 1161.64 135.672   8
   2  -8  16 1064.55 64.4648   5
  -2  -8  16 1080.11 58.2261   5
   2  -8  18 600.836 35.6519   4
  -2  -8  18 539.386 27.9679   4
   2   8  18 462.624 78.0920   4
  -2  -8  18 553.622 33.7795   4
   2  -8  18 695.191 73.4813   1
   2  -8  18 556.082 68.9589   9
  -2  -8  18 576.772 40.2091   5
   2  -8  18 676.291 49.5096   6
   2  -8  20 875.100 75.6284   1
   2  -8  20 882.259 45.0019   4
  -2  -8  20 732.986 34.4566   4
  -2  -8  20 732.264 40.6609   4
  -2  -8  20 847.312 41.7088   5
   2  -9 -17 807.547 51.7904   6
  -2  -9 -17 789.920 44.4234   5
   2   9 -15 1772.66 121.280   8
   2  -9 -15 1656.51 76.9743   5
  -2  -9 -15 1981.48 81.2592   5
  -2   9 -13 2868.86 137.752   8
   2   9 -13 2953.26 155.264   8
   2  -9 -13 2986.65 111.210   5
   2   9 -11 5246.62 210.424   1
  -2  -9 -11 5280.95 163.288   5
   2  -9 -11 4936.85 150.873   5
  -2   9  -9 11176.9 286.734   3
   2  -9  -9 9892.23 229.650   5
  -2   9  -7 1765.74 105.910   8
   2   9  -7 1871.03 85.2119   9
   2  -9  -7 1906.30 93.1108   5
   2   9  -5 7334.66 172.473   9
   2  -9  -5 7246.77 200.731   5
  -2   9  -3 21956.2 354.580   4
   2   9  -3 22835.6 362.468   4
  -2   9  -3 21627.8 401.731   2
   2   9  -3 21491.0 358.141   2
   2   9  -3 20356.7 434.089   1
   2   9  -3 21532.4 369.876   9
   2  -9  -3 21773.1 436.393   5
  -2   9  -1 3460.01 97.8476   2
   2   9  -1 3087.84 67.5967   2
  -2   9  -1 4221.86 164.953   1
   2   9  -1 3665.90 96.5517   4
   2  -9  -1 2713.33 78.5382   7
   2  -9  -1 3405.54 121.852   5
   2   9   1 3264.68 118.641   4
  -2   9   1 3408.57 104.643   2
   2  -9   1 3223.47 104.176   7
   2   9   3 17838.8 428.958   4
  -2   9   3 21703.8 440.065   1
   2  -9   3 17705.7 360.398   2
  -2   9   3 22126.7 378.746   2
   2  -9   3 20558.6 387.877   7
   2  -9   3 19679.4 404.850   5
   2  -9   5 6198.66 160.656   2
   2  -9   5 6511.08 183.728   7
   2  -9   5 6289.02 187.882   5
   2  -9   7 2065.40 86.5033   2
   2  -9   7 2075.94 101.420   7
   2  -9   7 2013.66 95.2097   5
  -2   9   9 7952.32 211.923   1
  -2  -9   9 8536.42 161.428   2
   2  -9   9 9981.29 276.538   1
   2  -9   9 9260.62 251.266   7
   2  -9   9 9572.16 234.080   5
  -2  -9  11 4487.23 107.655   2
   2  -9  11 4903.82 164.104   9
   2  -9  11 4860.51 180.391   7
   2  -9  11 4834.54 155.746   5
  -2   9  13 3330.80 110.221   1
   2  -9  13 3226.92 125.799   2
  -2  -9  13 3217.68 92.1710   2
   2  -9  13 3553.25 161.267   7
   2  -9  13 3356.32 144.210   9
  -2  -9  13 3648.83 145.637   7
   2  -9  13 3471.75 128.231   5
  -2  -9  13 3446.20 119.099   5
   2  -9  15 1763.23 42.3317   4
  -2  -9  15 1779.01 69.7390   2
   2  -9  15 2162.64 128.379   1
  -2   9  15 1944.46 69.3437   1
   2   9  15 1996.25 136.158   9
   2  -9  15 1890.34 113.258   9
  -2  -9  15 1692.91 103.346   7
   2  -9  15 1987.29 123.722   7
  -2  -9  15 2028.83 180.921   8
  -2  -9  15 1749.82 80.9619   5
   2  -9  15 1767.18 86.3606   5
   2   9  17 598.950 89.1058   4
   2  -9  17 747.492 28.1790   4
   2  -9  17 993.786 87.0877   1
   2  -9  17 951.714 122.772   8
   2   9  17 918.682 100.766   9
   2  -9  17 744.799 56.9892   5
  -2  -9  17 888.276 54.8896   5
   2   9  19 1477.74 139.851   4
  -2  -9  19 994.539 27.0956   4
  -2  -9  19 799.637 24.5663   4
   2  -9  19 1760.59 43.8831   4
   2  -9  19 2167.36 89.8033   6
  -2  -9  19 2027.38 77.9152   5
  -2 -10 -20 2068.14 69.7664   6
   2 -10 -18 1550.40 76.4091   6
  -2 -10 -18 1550.17 64.7365   5
   2  10 -16 1189.51 103.220   8
   2 -10 -16 990.734 61.8079   5
  -2 -10 -16 1130.97 63.6225   5
   2  10 -14 3180.64 166.911   8
  -2  10 -14 3043.85 146.806   8
   2 -10 -14 2963.77 115.744   5
  -2 -10 -14 3342.81 124.172   5
  -2  10 -12 3297.61 172.121   3
   2  10 -12 2220.47 151.749   1
   2  10 -12 2474.33 148.406   8
  -2  10 -12 2629.39 132.575   8
   2 -10 -12 2541.73 107.792   5
  -2 -10 -12 3128.57 125.512   5
  -2  10 -10 3722.52 242.641   1
  -2 -10 -10 3777.22 93.7211   7
  -2  10  -8 4281.06 230.427   1
  -2 -10  -8 3957.99 97.6663   7
   2 -10  -6 1687.38 74.1206   9
   2 -10  -6 1891.73 97.1199   5
   2 -10  -4 5506.81 135.963   9
  -2  10  -4 5497.85 233.887   8
   2  10  -2 6023.43 138.558   4
  -2  10  -2 6312.76 158.537   2
   2  10  -2 4358.34 167.934   1
  -2  10  -2 7521.66 250.368   1
   2 -10  -2 5579.91 115.516   9
   2 -10  -2 6185.63 188.048   5
   2  10   0 1459.60 71.5600   4
  -2  10   0 1439.08 66.1919   2
  -2  10   0 1859.65 113.144   1
   2  10   0 1538.25 53.0036   2
   2 -10   0 1069.50 57.2507   7
   2 -10   0 1356.47 82.4441   5
   2  10   2 5994.16 192.171   4
  -2  10   2 6612.38 163.288   2
  -2  10   2 7120.90 224.250   1
   2 -10   2 5954.50 113.922   9
   2 -10   2 6490.89 169.618   7
   2 -10   2 5928.69 187.727   5
   2  10   4 4886.40 188.327   4
  -2  10   4 5865.24 195.765   1
  -2  10   4 6017.33 154.650   2
   2 -10   4 5079.46 143.206   2
   2 -10   4 5515.84 123.571   9
   2 -10   4 5141.29 159.904   7
   2 -10   4 5377.64 175.145   5
   2 -10   6 1773.29 77.9303   2
   2 -10   6 1904.84 73.5720   9
   2 -10   6 1774.90 92.5511   7
   2 -10   6 1814.62 94.7607   5
   2 -10   8 4743.49 141.546   9
   2 -10   8 4755.46 168.162   7
   2 -10   8 4529.34 157.182   5
  -2 -10  10 3749.99 88.2485   2
   2 -10  10 4086.37 135.864   2
  -2  10  10 3920.27 141.586   1
   2 -10  10 4218.49 166.581   7
   2  10  10 4047.96 162.507   9
   2 -10  10 4177.33 140.724   9
   2 -10  12 2727.30 111.890   2
  -2  10  12 2687.92 109.941   1
  -2 -10  12 2597.36 75.0420   2
   2 -10  12 2938.27 144.881   7
  -2 -10  12 2749.85 126.467   7
   2  10  12 3044.11 150.993   9
   2 -10  12 2789.32 123.551   9
   2 -10  12 2794.20 118.190   5
  -2 -10  12 2775.50 110.911   5
  -2 -10  14 3094.09 89.2892   2
   2 -10  14 3076.13 123.466   2
  -2  10  14 2901.21 106.938   1
   2 -10  14 3022.85 139.365   9
   2 -10  14 3239.71 160.016   7
  -2 -10  14 2976.32 140.012   7
   2  10  14 3494.56 176.211   9
   2 -10  14 3372.19 129.736   5
  -2 -10  14 3012.61 115.726   5
   2 -10  16 1347.10 98.2692   1
  -2 -10  16 1027.10 52.0920   2
   2 -10  16 1033.82 71.9553   2
  -2  10  16 1152.85 50.1899   1
   2  10  16 1258.14 112.775   9
   2 -10  16 1037.35 68.3595   5
  -2 -10  16 999.984 62.6635   5
   2 -10  18 1659.40 94.6738   2
  -2 -10  18 1693.16 70.9595   2
  -2 -10  18 1728.55 80.8422   5
   2 -10  18 1793.15 90.5888   5
  -2 -10  20 2352.21 89.1270   2
   2 -10  20 2345.04 115.084   2
   2 -10  22 175.400 35.5928   2
  -2 -11 -19 1261.16 57.7890   5
   2 -11 -19 1609.41 79.0382   6
   2  11 -17 661.008 82.1523   8
  -2 -11 -17 606.824 49.4225   5
   2  11 -15 738.391 84.1321   8
   2 -11 -15 810.213 61.6488   5
  -2 -11 -15 855.835 62.8810   5
   2  11 -13 1988.00 135.564   8
  -2  11 -13 1802.49 114.746   8
   2 -11 -13 2097.01 101.966   5
  -2  11 -11 3734.71 174.593   3
   2  11 -11 3107.20 171.713   8
  -2  11 -11 2886.12 145.678   8
  -2 -11 -11 3625.69 144.769   5
   2 -11 -11 3298.09 134.386   5
  -2  11  -9 2936.19 212.987   1
  -2 -11  -9 4839.22 101.394   7
   2  11  -7 1707.85 109.675   1
   2  11  -7 1805.14 73.5062   3
   2 -11  -7 1482.27 90.8189   5
   2  11  -5 3550.04 159.599   1
  -2  11  -5 3540.53 75.3313   4
  -2  11  -3 13557.4 270.380   2
   2 -11  -3 13376.4 315.345   5
  -2  11  -1 2304.38 91.8000   2
   2 -11  -1 2230.12 112.055   5
  -2  11   1 2304.64 90.1996   2
   2  11   1 2278.55 102.028   4
   2 -11   1 2153.82 110.651   5
   2  11   3 11823.2 322.841   4
  -2  11   3 13073.7 279.006   2
  -2  11   3 14851.9 361.426   1
   2 -11   3 12370.7 291.197   7
   2  11   3 13975.3 241.435   9
   2 -11   3 13354.8 222.922   9
   2 -11   3 12890.3 318.946   5
  -2  11   5 2951.18 141.948   1
   2 -11   5 2659.96 99.4343   2
  -2  11   5 3114.82 110.297   2
   2 -11   5 2522.15 114.495   7
   2 -11   5 2992.68 85.7098   9
   2  11   5 3132.53 100.713   9
   2 -11   5 2827.51 126.445   5
   2 -11   7 1622.99 71.2062   9
   2  11   7 1734.05 85.8404   9
   2 -11   7 1535.27 91.1227   7
   2 -11   7 1542.46 90.5923   5
   2  11   9 4020.84 209.623   4
   2 -11   9 5208.19 160.081   2
  -2  11   9 5297.17 183.884   1
   2 -11   9 6629.65 220.920   1
   2 -11   9 5662.27 163.319   9
   2  11   9 6510.50 196.909   9
   2 -11   9 5869.13 198.256   7
  -2  11  11 2898.18 124.928   1
  -2 -11  11 2625.32 71.1104   2
   2 -11  11 2717.48 110.050   2
   2 -11  11 3298.04 152.585   1
   2 -11  11 3118.27 146.086   7
   2 -11  11 2930.53 120.895   9
   2  11  11 3137.75 144.789   9
  -2 -11  11 2840.06 116.804   5
   2 -11  11 2793.19 122.974   5
  -2 -11  13 2161.06 66.6522   2
  -2  11  13 2209.26 106.842   1
   2 -11  13 2275.05 102.174   2
   2 -11  13 2389.99 131.186   1
   2 -11  13 2512.95 137.997   7
  -2 -11  13 2310.10 120.112   7
   2  11  13 2714.39 147.767   9
   2 -11  13 2295.30 111.312   5
  -2 -11  13 2216.60 102.606   5
  -2  11  15 852.262 58.2871   1
  -2 -11  15 714.217 38.4105   2
   2 -11  15 690.224 57.8958   2
   2 -11  15 884.016 77.9173   1
  -2 -11  15 818.605 60.3917   5
   2 -11  15 727.499 61.2390   5
   2 -11  17 466.753 49.8157   2
  -2 -11  17 434.558 33.3985   2
  -2 -11  17 551.016 48.0134   5
   2 -11  17 548.259 52.9136   5
  -2 -11  19 1545.03 66.0834   2
   2 -11  19 1694.61 94.1726   2
  -2 -11  19 1609.62 80.4553   5
   2 -11  19 1653.60 89.3886   5
   2 -11  21 159.905 33.9174   2
  -2 -12 -18 179.921 29.5033   5
   2  12 -16 1312.64 113.156   8
  -2 -12 -16 1268.39 77.9850   5
   2 -12 -16 1278.54 80.4871   5
   2  12 -14 103.675 39.9906   8
   2 -12 -14 120.226 29.0818   5
  -2 -12 -14 139.646 32.0950   5
   2  12 -12 20.9971 33.2551   1
  -2  12 -12 57.5546 38.1064   3
  -2  12 -12 29.4976 25.6741   8
   2  12 -12 13.5461 27.1166   8
  -2 -12 -12 29.7473 22.2329   5
   2 -12 -12 43.1590 24.5023   5
  -2  12 -10 2630.45 209.660   1
  -2  12 -10 2268.19 129.869   3
   2  12 -10 2650.50 157.935   1
   2  12 -10 1829.54 136.177   8
  -2  12 -10 1699.23 116.276   8
   2 -12 -10 2011.55 109.648   5
  -2 -12 -10 2096.45 116.533   5
  -2  12  -8 303.912 74.1837   1
   2  12  -8 282.174 53.9650   1
   2  12  -8 271.543 32.3801   3
   2  12  -8 235.961 56.1508   8
  -2  12  -8 214.263 44.6088   8
   2 -12  -8 244.907 40.6633   5
  -2 -12  -8 265.456 44.4746   5
  -2 -12  -8 202.509 17.5173   7
   2  12  -6 1262.66 96.9140   1
  -2  12  -6 1236.29 137.983   1
   2 -12  -6 1158.19 84.5288   5
   2  12  -4 748.365 39.9183   2
   2  12  -4 677.488 28.3889   4
  -2  12  -4 728.872 31.0121   4
   2 -12  -4 762.802 68.3090   5
   2  12  -2 407.100 29.4389   2
  -2  12  -2 384.487 37.8885   2
  -2  12  -2 436.214 67.1529   1
   2  12  -2 399.380 32.0945   4
   2 -12  -2 378.829 49.9750   5
   2 -12  -2 386.251 31.6536   7
  -2  12   0 2131.25 90.1436   2
   2 -12   0 1997.35 112.336   5
  -2  12   2 509.359 42.4907   2
  -2  12   2 545.727 66.2107   1
   2 -12   2 525.491 56.1149   5
  -2  12   4 607.196 47.2112   2
   2 -12   4 530.409 51.6785   7
   2 -12   4 564.996 59.2138   5
  -2  12   6 1179.78 69.6139   2
   2 -12   6 1113.65 77.7887   7
   2  12   6 1327.92 65.0402   9
   2 -12   6 1127.90 82.3114   5
   2  12   8 267.840 54.3595   4
  -2  12   8 357.540 51.4716   1
   2 -12   8 330.326 46.8803   1
   2 -12   8 321.490 35.7816   2
   2 -12   8 317.348 46.3556   7
   2  12   8 368.355 41.7313   9
   2 -12   8 287.607 43.4868   5
  -2  12  10 2024.34 113.029   1
   2 -12  10 1701.91 82.4815   2
   2 -12  10 1866.98 112.581   1
   2  12  10 2047.30 109.238   9
   2 -12  10 1957.28 115.678   7
   2  12  12 33.8665 35.4994   4
   2 -12  12 65.1908 29.2780   1
  -2  12  12 52.5470 25.5582   1
   2 -12  12 63.8486 20.0122   2
  -2 -12  12 46.2098 25.2990   7
   2 -12  12 54.4855 30.2920   7
   2 -12  12 39.3101 23.2630   5
  -2 -12  12 41.0027 21.5001   5
   2 -12  14 117.685 27.1929   2
  -2 -12  14 120.039 15.5724   2
  -2  12  14 123.882 30.8327   1
   2  12  14 126.379 51.9621   4
   2 -12  14 117.791 31.1902   5
  -2 -12  14 104.658 27.0848   5
  -2  12  16 1481.66 80.7817   1
  -2 -12  16 1037.48 44.9301   2
   2 -12  16 1022.54 70.6638   2
   2  12  16 632.615 96.7694   4
  -2 -12  16 1086.09 71.3111   5
   2 -12  16 1062.82 75.8821   5
   2 -12  18 200.285 34.4808   2
   2  12  18 266.798 44.6129   1
  -2 -12  18 193.557 21.4785   2
  -2 -12  18 192.143 32.3098   5
   2 -12  18 233.187 40.2227   5
   2 -12  20 314.957 42.6714   2
   2  13 -17 339.366 97.3550   1
  -2 -13 -17 412.927 47.3295   5
   2 -13 -17 442.784 51.3303   5
   2  13 -15 21.8108 56.4604   1
   2  13 -15 66.2826 38.6734   8
  -2 -13 -15 31.3580 23.0067   5
   2 -13 -15 32.5747 23.4138   5
  -2  13 -13 836.298 90.3423   3
   2  13 -13 610.624 82.5495   8
  -2 -13 -13 734.133 68.5020   5
   2 -13 -13 663.995 64.0201   5
  -2  13 -11 210.124 80.9798   1
   2  13 -11 174.560 57.3182   1
  -2  13 -11 166.424 45.2543   3
   2  13 -11 185.697 51.3627   8
   2 -13 -11 150.723 36.4777   5
  -2 -13 -11 144.323 36.4436   5
  -2  13  -9 93.2318 57.2192   1
  -2  13  -9 68.8640 29.8422   3
   2  13  -9 111.873 43.7833   1
  -2  13  -9 71.0618 31.0788   8
   2  13  -9 109.012 43.2499   8
   2  13  -7 564.753 44.0953   3
   2  13  -7 484.208 70.8182   1
   2  13  -7 474.353 81.8356   8
  -2  13  -7 500.069 71.3316   8
  -2 -13  -7 503.972 60.3214   5
  -2 -13  -7 324.224 25.3682   7
   2 -13  -7 492.835 58.6176   5
  -2  13  -5 103.215 10.7396   4
  -2  13  -5 85.9427 15.4785   4
   2  13  -5 61.8943 32.6049   1
  -2  13  -5 70.8120 48.0163   1
  -2  13  -5 98.6787 40.6271   8
   2  13  -5 110.213 50.5559   8
   2 -13  -5 69.6901 27.3909   5
   2  13  -3 514.296 34.7178   2
   2  13  -3 512.733 31.8615   4
  -2  13  -3 523.175 28.4544   4
   2 -13  -3 452.074 31.7283   7
   2 -13  -3 458.185 57.4686   5
   2  13  -1 119.746 17.7787   2
   2  13  -1 168.437 43.7394   1
  -2  13  -1 160.469 45.5587   1
  -2  13  -1 97.8629 22.0137   2
   2  13  -1 135.376 24.0268   4
   2 -13  -1 98.2955 30.9493   5
   2 -13  -1 102.796 21.6954   7
  -2  13   1 110.669 41.5812   1
   2  13   1 91.1012 32.8210   1
  -2  13   1 82.0111 20.3376   2
   2  13   1 82.3259 17.1376   2
   2 -13   1 70.5332 21.0573   7
   2 -13   1 75.2524 29.5727   5
  -2  13   3 551.761 47.0058   2
  -2  13   3 640.908 74.8022   1
   2 -13   3 501.489 59.1024   5
  -2  13   5 73.9661 21.6503   2
   2  13   5 58.8886 28.9142   1
   2 -13   5 55.4379 26.2246   5
   2  13   7 363.420 60.3968   4
   2 -13   7 472.794 42.4325   2
  -2  13   7 529.396 66.5645   1
  -2  13   7 516.067 48.7547   2
   2 -13   7 450.681 54.5172   7
   2 -13   7 466.900 54.7740   5
   2  13   9 109.027 31.8332   1
   2 -13   9 122.390 34.1040   1
  -2  13   9 189.849 44.6752   1
   2 -13   9 98.8763 22.8232   2
   2  13   9 67.6450 36.7365   4
   2 -13   9 82.3791 31.0404   7
   2  13  11 105.825 43.2657   4
   2  13  11 129.109 34.0883   1
   2 -13  11 112.046 24.4247   2
   2 -13  11 142.172 36.9154   1
  -2  13  11 157.655 37.9645   1
  -2 -13  11 120.199 32.4841   7
   2 -13  11 161.841 36.2545   5
  -2 -13  11 95.6405 28.0429   5
   2 -13  11 143.663 39.7693   7
   2  13  13 970.299 80.3815   1
   2 -13  13 731.247 56.5161   2
  -2  13  13 751.738 70.8343   1
   2  13  13 508.091 85.9910   4
  -2 -13  13 728.897 63.1087   5
   2 -13  13 722.477 66.6582   5
  -2  13  15 68.4397 29.4251   1
   2  13  15 90.5576 34.0707   1
   2 -13  15 51.9171 20.5721   2
   2  13  15 36.0300 35.5866   4
  -2 -13  15 48.6884 23.0278   5
   2 -13  15 78.4565 30.7353   5
  -2  13  17 466.069 45.8432   1
   2 -13  17 385.865 43.7102   2
   2  13  17 490.211 58.6049   1
  -2 -13  17 346.174 24.0485   2
   2 -13  17 354.781 47.7372   5
  -2 -13  17 389.324 45.3724   5
   2 -13  19 248.174 36.3178   2
   2  14 -18 5.51925 67.4219   1
  -2  14 -16 1112.27 99.3854   8
   2 -14 -16 969.933 79.3918   5
  -2 -14 -16 1107.79 81.7926   5
   2  14 -14 75.8122 39.2365   8
  -2  14 -14 96.5247 37.1156   8
  -2 -14 -14 138.679 36.7050   5
   2 -14 -14 109.333 32.6800   5
   2  14 -12 453.995 87.7585   1
  -2  14 -12 380.739 96.0885   1
  -2  14 -12 409.026 64.0782   3
   2  14 -12 302.153 62.9718   8
   2 -14 -12 331.240 52.7103   5
  -2 -14 -12 279.996 47.5636   5
  -2  14 -10 1603.17 110.002   3
   2  14 -10 1230.09 119.507   8
  -2 -14 -10 1431.32 104.288   5
   2 -14 -10 1451.58 102.602   5
   2  14  -8 471.558 76.0846   1
   2  14  -8 460.348 42.2716   3
  -2  14  -8 514.920 96.1678   1
   2  14  -8 337.648 70.9436   8
  -2  14  -8 423.364 67.3092   8
  -2  14  -6 1680.23 140.697   8
   2  14  -6 1705.48 159.339   8
   2 -14  -6 1823.26 118.434   5
  -2 -14  -6 2119.68 125.631   5
   2  14  -4 424.289 22.2089   4
  -2  14  -4 474.684 38.7019   4
  -2  14  -4 420.433 24.1438   4
   2  14  -4 390.564 78.5777   8
  -2  14  -4 373.912 72.4817   8
   2 -14  -4 432.464 58.8042   5
  -2 -14  -4 543.805 63.7189   5
  -2  14  -2 271.977 61.8363   1
   2  14  -2 219.792 25.0302   2
   2  14  -2 110.737 46.2056   1
   2  14  -2 183.807 23.7085   4
   2 -14  -2 185.736 25.8121   7
   2 -14  -2 212.090 43.8709   5
   2  14   0 3363.82 103.368   2
   2  14   0 3562.26 126.653   4
   2 -14   0 3622.67 165.819   5
   2 -14   0 3176.86 119.446   7
  -2  14   2 215.542 32.5390   2
   2  14   2 231.778 27.5273   2
  -2  14   2 324.578 61.1180   1
   2  14   2 240.241 52.4449   1
   2 -14   2 229.773 34.9326   7
   2 -14   2 203.753 41.7268   5
  -2  14   4 395.588 42.3646   2
   2 -14   4 302.578 43.0722   7
   2 -14   4 374.880 53.7895   5
  -2  14   6 1878.84 93.9792   2
   2 -14   6 1690.20 108.320   5
  -2 -14   6 1853.51 107.502   5
   2  14   8 437.541 70.0108   4
  -2  14   8 509.385 51.9417   2
  -2  14   8 567.370 72.3140   1
   2 -14   8 414.853 41.0006   2
  -2 -14   8 496.804 54.3720   7
  -2 -14   8 487.511 54.8566   5
   2 -14   8 427.708 56.5234   5
   2  14  10 1042.80 111.753   4
   2 -14  10 1163.21 69.7841   2
  -2  14  10 1501.24 113.640   1
   2  14  10 1157.23 91.6082   1
  -2 -14  10 1274.56 88.9621   7
   2 -14  10 1285.27 100.099   7
   2 -14  10 1278.76 93.6677   5
  -2 -14  10 1282.29 86.9508   5
   2  14  12 348.469 54.0505   1
   2 -14  12 284.606 36.6045   2
  -2  14  12 318.960 52.1348   1
   2 -14  12 274.048 46.7260   5
  -2 -14  12 270.654 42.5195   5
   2 -14  14 120.868 27.0381   2
  -2  14  14 160.136 41.8804   1
   2  14  14 194.705 44.8013   1
   2  14  14 55.9327 43.7726   4
   2 -14  14 116.255 35.8266   5
  -2 -14  14 135.467 32.4452   5
   2 -14  16 906.266 63.9259   2
  -2  14  16 1338.67 93.3394   1
   2  14  16 1416.65 102.807   1
  -2 -14  16 903.770 70.8028   5
   2 -14  16 1070.37 81.2651   5
   2 -14  18 36.5738 21.7079   2
   2  14  18 69.0763 39.5033   1
  -2  15 -15 326.654 58.4678   8
  -2 -15 -15 397.079 57.2715   5
   2 -15 -15 296.088 49.3834   5
  -2  15 -13 1499.45 120.033   3
  -2  15 -13 1151.62 103.218   8
   2  15 -13 1136.48 114.011   8
  -2 -15 -13 1451.65 105.703   5
   2 -15 -13 1293.01 98.5703   5
   2  15 -11 736.702 104.023   1
  -2  15 -11 723.911 80.1615   3
   2  15 -11 501.013 81.1159   8
  -2 -15 -11 602.649 70.4543   5
   2 -15 -11 641.394 72.5239   5
  -2  15  -9 1573.72 106.505   3
   2  15  -9 1168.58 122.542   8
  -2 -15  -9 1453.94 108.276   5
   2 -15  -9 1446.45 107.228   5
   2  15  -7 1217.79 67.3493   3
   2  15  -7 1458.69 124.712   1
   2  15  -7 1082.21 127.964   8
  -2 -15  -7 932.793 37.1227   7
  -2 -15  -7 706.313 34.4815   7
  -2  15  -5 806.761 26.9399   4
  -2  15  -5 1014.03 34.5849   4
   2  15  -5 1441.49 117.208   1
  -2  15  -5 1766.52 167.033   1
  -2  15  -5 1132.04 120.756   8
   2  15  -5 1014.04 127.578   8
   2 -15  -5 1099.10 94.4211   5
  -2 -15  -5 1357.85 103.222   5
   2  15  -3 3508.61 93.3907   4
  -2  15  -3 3392.81 124.018   4
  -2  15  -3 3496.12 88.3021   4
   2  15  -3 3436.17 106.524   2
  -2  15  -3 3526.20 131.521   2
  -2  15  -3 2923.61 193.503   8
   2 -15  -3 3470.59 168.984   5
  -2 -15  -3 4011.79 177.819   5
   2  15  -1 779.695 48.1271   2
  -2  15  -1 784.935 59.0646   2
   2  15  -1 807.600 54.0988   4
   2 -15  -1 831.045 82.1225   5
   2 -15  -1 777.614 54.2721   7
  -2 -15  -1 1024.57 86.8065   5
  -2  15   1 1192.81 115.567   1
   2  15   1 876.525 52.1767   2
   2 -15   1 843.213 64.4659   7
   2 -15   1 1123.16 92.1835   5
  -2 -15   1 1024.54 87.1766   5
   2  15   3 3353.89 112.930   2
   2 -15   3 3214.63 136.335   7
   2 -15   3 3352.83 162.279   5
   2  15   5 989.949 91.5015   4
  -2  15   5 1042.94 71.4091   2
   2 -15   5 974.557 76.7723   7
  -2 -15   5 1024.74 83.3312   5
   2 -15   5 993.519 87.1042   5
  -2  15   7 1352.40 83.9968   2
   2 -15   7 1363.41 96.7994   7
   2 -15   7 1240.98 96.4799   5
  -2 -15   7 1202.64 89.6709   5
   2  15   9 1682.45 115.810   1
   2  15  11 367.407 72.0322   4
   2  15  11 753.447 79.8980   1
  -2  15  11 611.257 76.8037   1
   2 -15  11 456.082 45.1655   2
   2  15  13 1119.92 127.055   4
   2 -15  13 1392.51 78.2372   2
  -2  15  15 353.597 58.0490   1
   2  15  15 384.628 65.8099   1
   2 -15  15 223.679 33.3693   2
   2 -15  17 72.5318 24.2230   2
   2  15  17 83.0809 46.4251   1
  -2  16 -14 952.346 94.9320   8
  -2  16 -12 975.206 98.0115   8
   2  16 -12 895.305 108.010   8
   2  16 -12 1289.67 144.413   1
  -2  16 -12 1143.25 103.758   3
  -2  16 -10 2833.54 151.333   3
  -2  16 -10 2415.99 159.594   8
   2  16 -10 2542.79 180.562   8
   2  16  -8 1402.66 74.4505   3
   2  16  -8 1226.11 133.649   8
   2 -16  -8 1271.63 106.382   5
  -2 -16  -8 1407.31 110.734   5
   2  16  -6 785.278 94.9829   1
   2  16  -6 464.964 90.9613   8
  -2 -16  -6 551.766 34.2210   7
  -2 -16  -6 690.259 79.2438   5
   2 -16  -6 659.133 78.3268   5
  -2  16  -4 3058.89 93.3226   4
   2  16  -4 3201.82 70.9072   4
  -2  16  -4 3110.38 76.5161   4
   2  16  -4 3997.54 204.345   1
   2  16  -4 2947.65 220.557   8
  -2 -16  -4 3442.90 110.077   7
  -2 -16  -4 4092.29 186.318   5
   2 -16  -4 3548.38 177.947   5
   2  16  -2 2090.45 84.0534   2
  -2  16  -2 2131.67 102.014   2
  -2  16  -2 2173.02 105.809   4
   2  16  -2 2332.29 83.1806   4
   2 -16  -2 2393.37 143.372   5
   2 -16  -2 2159.12 89.6260   7
   2  16   0 152.802 23.7130   2
  -2  16   0 217.199 61.1356   1
   2  16   0 218.748 53.0487   1
  -2  16   0 138.405 28.5540   2
  -2  16   0 159.243 38.8372   4
   2  16   0 168.128 29.8632   4
  -2 -16   0 193.796 44.6754   5
   2 -16   0 133.161 40.7362   5
   2 -16   0 174.826 30.8650   7
   2  16   2 2393.97 95.3376   2
  -2  16   2 3359.94 199.827   1
   2 -16   2 2682.96 149.038   5
  -2 -16   2 3006.24 149.798   5
   2 -16   2 2278.80 114.135   7
   2  16   4 2952.81 152.324   4
  -2 -16   4 3101.24 132.626   7
   2 -16   4 3194.69 141.714   7
   2  16   4 3054.07 112.973   2
   2  16   6 641.777 77.4609   4
   2 -16   6 688.208 70.0836   7
  -2 -16   6 700.914 65.1699   7
  -2  16   6 917.040 103.125   1
   2  16   8 1238.04 116.800   4
   2 -16   8 1506.66 106.909   7
  -2 -16   8 1375.34 93.1590   7
  -2  16  10 3259.01 184.890   1
  -2  16  12 1277.78 112.816   1
   2  16  12 1704.26 135.672   1
   2  16  14 1614.50 135.178   1
  -2  16  14 1380.08 115.614   1
   2 -16  16 957.791 64.3396   2
  -2  17 -13 1711.31 127.939   3
  -2  17 -11 1724.64 134.821   8
  -2  17 -11 2120.51 133.191   3
  -2  17  -9 3644.12 167.739   3
  -2  17  -9 2940.13 180.657   8
   2  17  -9 3151.72 213.463   8
   2  17  -7 1580.90 80.7912   3
   2  17  -7 1297.11 144.832   8
  -2  17  -7 1256.85 127.991   8
   2  17  -7 1724.04 151.213   1
   2  17  -5 2472.08 207.982   8
  -2 -17  -5 2320.13 82.9750   7
   2  17  -3 6002.20 129.244   4
  -2  17  -3 6146.29 160.203   4
  -2  17  -3 5661.02 127.832   4
   2  17  -3 5781.12 158.856   2
  -2 -17  -3 6676.77 174.029   7
   2  17  -3 5165.28 303.793   8
   2  17  -1 1763.44 79.1215   4
   2  17  -1 2087.22 146.923   1
   2  17  -1 1802.00 80.4625   2
  -2  17  -1 1816.38 95.7893   2
  -2 -17  -1 1948.21 92.8470   7
   2 -17  -1 1852.45 91.9710   7
   2  17   1 1758.04 81.4591   2
  -2  17   1 1870.44 97.4385   2
  -2 -17   1 1989.34 99.7446   7
   2 -17   1 1767.48 98.2274   7
  -2  17   3 5909.69 250.812   4
   2  17   3 5617.90 205.959   4
   2  17   3 5832.23 168.745   2
  -2  17   3 5913.66 187.631   2
  -2 -17   3 6376.59 200.216   7
   2 -17   3 5957.40 204.091   7
   2  17   5 2342.70 140.847   4
   2 -17   5 2585.90 133.719   7
  -2 -17   5 2484.63 122.070   7
   2  17   5 2387.67 103.808   2
   2  17   7 1348.86 117.296   4
  -2 -17   7 1478.00 97.7181   7
   2 -17   7 1629.21 111.234   7
   2  17   9 2943.50 186.009   4
  -2  17   9 2709.07 203.601   4
  -2  17  11 1436.88 156.655   4
   2  17  11 1549.98 143.315   4
  -2  17  13 2079.03 154.147   1
  -2  18 -12 337.771 61.9736   3
  -2  18 -10 843.002 83.8891   3
  -2  18 -10 794.652 96.9769   8
   2  18  -8 449.491 44.0612   3
  -2  18  -8 403.649 73.9966   8
   2  18  -6 39.9939 47.4920   1
  -2  18  -6 62.1892 65.1288   1
   2  18  -6 95.4218 57.7268   8
  -2  18  -6 92.5618 45.6667   8
  -2 -18  -6 29.2824 9.35807   7
  -2 -18  -6 37.5909 10.4533   7
  -2  18  -4 716.223 31.4359   4
  -2  18  -4 1035.87 32.5467   4
  -2  18  -4 682.600 107.039   8
   2  18  -4 768.439 123.360   8
  -2 -18  -4 834.267 52.8547   7
   2  18  -4 1048.59 116.906   1
  -2  18  -4 1294.64 162.243   1
  -2  18  -2 639.785 51.6323   4
   2  18  -2 665.849 41.1036   4
  -2  18  -2 617.803 36.1880   4
   2  18  -2 777.461 101.009   1
  -2  18  -2 622.569 58.2127   2
   2  18  -2 596.013 47.0784   2
  -2 -18  -2 680.985 54.6688   7
  -2  18   0 40.0725 55.0191   1
   2  18   0 33.2176 18.6451   2
   2  18   0 9.58408 36.9345   1
  -2  18   0 19.4487 20.0325   2
  -2 -18   0 28.9320 22.3780   7
   2 -18   0-1.49106 21.8353   7
   2  18   2 691.818 63.8998   4
  -2  18   2 683.712 78.3440   4
   2  18   2 604.173 49.5232   2
  -2  18   2 677.768 61.0339   2
  -2 -18   2 723.855 64.1308   7
   2 -18   2 585.140 60.9747   7
   2  18   4 721.704 73.7257   4
  -2  18   4 715.449 89.8934   4
   2  18   4 735.859 57.1953   2
  -2 -18   4 821.389 70.4584   7
   2 -18   4 779.178 74.4514   7
   2  18   6 89.0646 26.6251   2
  -2  18   6 177.331 63.8202   1
   2  18   6 106.297 52.4390   1
   2  18   6 103.556 40.2807   4
  -2  18   6 113.444 51.4050   4
   2 -18   6 152.769 40.8331   7
   2  18   8 412.080 71.8660   4
  -2  18   8 385.713 82.9200   4
  -2  18   8 633.823 97.1828   1
  -2  18  10 560.814 100.803   4
   2  18  10 742.506 97.1407   4
   2  18  12 388.535 77.0972   1
  -2  18  12 447.199 86.6634   1
   2  18  14 346.461 74.8578   1
  -2  19  -9 389.387 60.5379   3
   2  19  -7 318.287 39.3848   3
  -2  19  -7 361.097 75.2293   8
  -2  19  -5 45.0789 48.3634   8
  -2 -19  -5 51.9282 15.6321   7
  -2  19  -3 705.227 33.2037   4
  -2  19  -3 745.981 40.4005   4
   2  19  -3 613.566 28.8671   4
  -2  19  -3 704.727 111.459   8
  -2 -19  -3 825.585 57.2931   7
   2  19  -1 118.488 24.0976   4
   2  19  -1 165.064 58.4898   1
  -2  19  -1 264.504 89.5472   1
  -2  19  -1 142.552 32.9996   2
   2  19  -1 130.941 25.7384   2
  -2 -19  -1 155.826 32.7056   7
   2 -19  -1 118.987 29.4421   7
  -2  19   1 88.2517 33.4019   4
   2  19   1 91.1292 25.1295   2
   2  19   1 107.704 54.8024   1
  -2 -19   1 122.751 33.2965   7
   2 -19   1 130.599 34.3016   7
  -2  19   3 761.840 86.1028   4
   2  19   3 828.659 73.3884   4
   2  19   3 710.851 56.6487   2
   2  19   3 1107.95 120.462   1
  -2  19   3 1091.84 139.072   1
  -2 -19   3 882.151 73.5890   7
   2 -19   3 923.995 80.3222   7
  -2  19   5 156.507 69.3520   1
   2  19   5 163.011 59.7872   1
   2  19   5 145.751 42.0240   4
  -2  19   5 120.906 50.1578   4
   2 -19   5 127.734 39.5105   7
  -2  19   7 427.111 79.2979   4
   2  19   7 331.061 61.4968   4
   2  19   7 426.453 83.0204   1
  -2  19   7 503.225 96.6774   1
  -2  19   9 423.770 85.7926   4
   2  19   9 509.477 81.0238   4
  -2  19   9 630.456 102.951   1
   2  19   9 525.843 87.6171   1
  -2  19  11 38.8838 52.0041   1
   2  20  -2 97.4023 16.8620   4
  -2  20  -2 80.2136 21.4633   4
   2  20  -2 85.1414 24.5303   2
  -2  20  -2 55.8709 53.5362   8
  -2 -20  -2 108.634 28.2655   7
   2  20   0 649.367 52.9063   2
  -2 -20   0 721.323 62.7469   7
   2 -20   0 654.613 60.9196   7
  -2  20   2 57.1521 32.8911   4
   2  20   2 51.0795 26.4226   4
   2  20   2 56.4947 23.5163   2
  -2 -20   2 54.9199 29.4087   7
   2 -20   2 37.8375 28.8612   7
  -2  20   4 230.227 54.3839   4
   2  20   4 326.676 52.5825   4
   2 -20   4 259.811 50.8270   7
   2  20   6 437.689 64.4198   4
  -2  20   6 533.009 83.6650   4
  -2  20   6 676.747 118.868   1
   2  20   8 27.0568 36.5740   4
  -2  20   8 31.4056 45.7681   4
  -2  20   8 59.0764 62.4261   1
  -2  20  10 817.460 127.768   1
   2  21   1-2.50514 17.3772   4
  -2  21   1 14.0448 23.7814   4
   2  21   1 16.3429 19.7803   2
   2  21   3 658.629 63.6200   4
  -2  21   3 639.266 73.1371   4
   2  21   5 56.4016 32.6718   4
  -2  21   5 48.1952 38.3129   4
  -2  21   7 96.0675 49.4736   4
   2  21   7 83.0067 40.5280   4
   3   0 -17 1065.67 101.423   9
  -3   0 -13 5983.59 112.101   5
  -3   0 -11 6609.70 180.901   7
  -3   0  -9 13314.6 283.720   7
  -3   0  -9 14062.0 248.278   5
  -3   0  -7 10214.6 253.405   4
  -3   0  -7 9476.20 182.448   6
  -3   0  -5 8695.18 188.199   7
  -3   0  -5 9074.32 184.333   6
  -3   0  -3 31240.1 540.060   4
  -3   0  -3 31412.0 575.193   3
  -3   0  -3 32028.5 540.202   6
  -3   0  -1 15423.4 269.777   4
   3   0  -1 16630.8 258.852   2
  -3   0   1 15673.6 260.112   4
  -3   0   1 15131.2 256.883   2
   3   0   3 29277.9 522.895   3
  -3   0   3 29095.6 464.945   2
   3   0   5 9287.82 214.879   4
  -3   0   5 9970.81 201.499   8
  -3   0   5 10358.5 213.920   6
   3   0   5 11024.7 225.986   7
  -3   0   7 8993.16 196.943   8
  -3   0   7 9351.72 194.771   6
  -3   0   9 13375.0 270.032   8
  -3   0   9 12430.0 242.329   6
   3   0  11 7035.16 213.185   4
  -3   0  11 7503.78 193.886   8
   3   0  13 5504.37 187.834   4
  -3   0  13 5728.96 169.053   8
   3   0  13 6110.03 204.077   9
  -3   0  13 4758.81 105.336   5
   3   0  13 6881.53 204.576   7
   3   0  15 2534.97 127.056   4
   3   0  15 2414.22 141.032   3
   3   0  15 2644.75 129.361   1
  -3   0  15 2331.49 111.016   8
   3   0  15 2847.18 150.520   9
   3   0  15 2430.03 97.8130   8
   3   0  17 1113.17 81.1460   1
   3   0  17 945.740 92.2526   3
   3   0  17 1065.09 98.8179   9
   3   0  17 981.046 65.5121   8
  -3   0  17 975.832 75.2985   8
  -3   0  17 1051.34 72.8108   7
   3   0  19 2766.62 144.062   4
   3   0  19 2515.27 159.683   3
   3   0  19 2997.40 137.063   1
  -3   0  19 2988.75 133.477   7
   3   0  21 1068.96 89.3998   4
  -3   0  21 1077.92 83.9723   7
   3   0  21 893.276 69.5694   1
  -3   0  23 28.7160 29.7927   4
   3   0  23 59.4538 31.3742   4
  -3   0  23 57.5650 29.7419   3
   3  -1 -16 2436.01 151.566   9
   3   1 -16 2705.01 156.604   9
  -3  -1 -12 1919.79 88.4695   7
  -3  -1 -10 7151.51 179.877   7
  -3   1 -10 7103.61 185.721   7
  -3   1 -10 7043.47 140.107   5
  -3  -1  -8 4148.58 166.119   4
  -3   1  -8 4109.78 147.270   4
   3   1  -8 3076.53 81.2660   1
  -3   1  -8 3153.52 105.302   7
  -3  -1  -8 3139.72 100.570   7
  -3   1  -8 2955.53 78.1130   5
  -3  -1  -8 3154.98 89.1744   6
  -3  -1  -6 513.266 48.6650   4
  -3   1  -6 507.870 42.6682   4
  -3   1  -6 487.060 52.8401   3
   3   1  -6 493.875 34.8129   8
  -3   1  -6 467.024 33.2609   7
  -3  -1  -6 382.629 31.7661   6
  -3  -1  -6 465.414 33.4547   7
  -3   1  -6 449.262 27.2851   5
  -3  -1  -4 7056.37 177.153   4
  -3   1  -4 6953.92 164.604   4
  -3   1  -4 7471.36 198.357   3
   3   1  -4 7975.32 163.225   8
   3  -1  -4 7341.64 172.317   6
  -3  -1  -4 6678.59 156.548   7
  -3   1  -2 7165.60 149.973   4
   3   1  -2 7170.81 142.284   4
   3   1  -2 7643.93 129.516   2
   3  -1  -2 7686.17 141.462   2
  -3  -1  -2 7716.35 181.649   3
   3   1  -2 7661.18 163.049   8
   3  -1  -2 7895.06 172.025   6
   3  -1   0 330.724 23.0118   2
  -3  -1   0 289.915 22.0067   4
  -3   1   0 284.713 20.3640   4
   3   1   0 281.044 21.6765   4
   3   1   2 6666.62 163.869   3
  -3  -1   2 6531.26 132.705   4
   3  -1   2 6142.29 138.263   4
  -3   1   2 6600.57 131.664   2
  -3  -1   2 6344.18 122.091   2
  -3   1   2 6815.31 121.754   8
  -3  -1   2 6457.78 168.223   8
  -3   1   2 6734.45 147.066   6
   3  -1   2 7228.56 161.605   6
   3  -1   4 5863.43 150.043   4
   3   1   4 5879.48 159.851   4
   3   1   4 6512.01 188.299   3
  -3   1   4 6504.58 138.109   2
  -3  -1   4 7355.72 128.485   2
  -3  -1   4 6986.57 169.516   8
  -3   1   4 7305.47 139.019   8
  -3   1   4 7346.64 154.134   6
   3  -1   4 7878.19 174.418   7
   3  -1   4 8473.12 177.543   6
   3  -1   6 365.554 32.7280   4
   3  -1   6 353.380 40.8565   3
   3   1   6 334.374 34.7190   4
  -3  -1   6 393.584 34.5727   8
  -3   1   6 384.805 26.4077   8
   3  -1   6 362.060 35.1529   7
   3  -1   6 471.357 37.8588   6
   3   1   8 2598.30 112.172   4
   3  -1   8 2960.55 106.742   4
   3  -1   8 2735.47 127.972   3
  -3  -1   8 3138.59 106.610   8
  -3   1   8 2786.99 88.9609   8
  -3  -1   8 2657.92 96.9346   6
   3   1   8 3258.98 112.783   7
   3  -1   8 3315.50 118.724   7
   3  -1  10 7369.88 198.447   4
   3   1  10 6697.37 211.996   4
  -3   1  10 7137.39 176.560   8
  -3  -1  10 7707.54 198.353   8
   3  -1  10 7331.42 168.634   8
   3  -1  10 8601.12 217.543   7
   3   1  10 8323.75 211.706   7
   3  -1  12 1933.09 96.6663   4
   3   1  12 1811.99 105.414   4
  -3   1  12 1836.90 82.6343   8
   3  -1  12 2000.91 105.388   9
   3   1  12 2203.15 113.615   9
  -3  -1  12 1952.07 94.7409   8
   3  -1  12 1847.21 76.9004   8
  -3   1  12 1848.37 55.4559   5
   3  -1  12 2354.84 110.487   7
   3   1  12 2380.63 109.891   7
  -3  -1  12 1814.68 62.3535   6
   3  -1  14 1822.42 98.9767   4
   3   1  14 1745.73 109.174   4
   3  -1  14 1690.01 114.741   3
   3   1  14 1702.27 118.383   3
   3   1  14 1978.59 118.284   9
   3  -1  14 1713.39 80.3439   8
  -3   1  14 1784.14 87.0565   8
   3  -1  14 2014.80 115.822   9
  -3  -1  14 1762.54 95.2876   8
   3  -1  14 2166.70 114.022   7
  -3  -1  14 1595.69 48.3120   5
  -3   1  14 1751.37 43.6541   5
   3   1  14 2322.03 115.138   7
   3   1  16 2469.25 135.441   4
   3  -1  16 2563.78 145.877   3
   3   1  16 2621.83 153.520   3
  -3   1  16 3015.64 119.535   7
  -3   1  16 2643.26 117.185   8
   3  -1  16 2625.63 111.483   8
   3   1  16 3214.52 165.975   9
  -3  -1  16 2788.25 129.992   8
   3  -1  16 3201.45 162.510   9
   3  -1  16 3370.31 154.364   7
   3  -1  18 1832.76 108.869   4
   3   1  18 2122.14 113.847   1
   3  -1  18 2058.26 110.774   1
   3  -1  18 1884.26 128.929   3
   3   1  18 1760.12 130.781   3
   3  -1  18 2308.92 146.928   9
  -3  -1  18 2042.48 118.644   8
  -3   1  18 2231.79 107.620   7
  -3  -1  18 2221.52 112.340   7
   3   1  18 2323.79 151.076   9
   3   1  18 1847.97 93.6514   8
   3  -1  18 1887.09 102.119   8
   3   1  18 2522.61 140.034   7
   3   1  20 2503.60 143.930   4
   3  -1  20 2542.10 132.586   4
   3   1  20 2667.72 128.653   1
   3  -1  20 2412.82 117.833   1
   3   1  20 2121.57 149.068   3
  -3  -1  20 2916.29 136.590   7
  -3   1  20 2617.58 126.507   7
   3   1  20 3312.15 173.079   7
   3  -1  20 3334.75 177.436   7
   3   1  22 436.657 62.2347   4
  -3  -1  22 377.319 62.2442   4
   3  -1  22 495.472 61.4158   4
   3  -1  22 422.252 67.8907   3
  -3   1  22 409.955 69.6277   4
  -3   1  22 578.806 62.8474   7
   3   1  22 479.686 51.0337   1
  -3  -1  22 336.823 53.3433   3
   3  -1  22 469.806 50.9482   1
   3  -1  24 604.027 68.2166   4
  -3  -1  24 459.354 66.7797   4
  -3   1  24 385.438 62.1595   3
  -3  -1  24 380.705 58.0224   3
   3   2 -15 1221.75 101.520   9
  -3  -2 -13 3735.45 79.7159   5
  -3  -2 -11 5726.03 157.758   7
  -3  -2  -9 11795.9 241.859   7
  -3   2  -9 11788.1 214.898   5
  -3  -2  -9 11166.9 235.276   6
  -3  -2  -7 4249.14 166.636   4
  -3   2  -7 4127.70 132.651   4
   3   2  -7 4568.78 102.455   1
  -3   2  -7 4289.02 167.746   3
   3   2  -7 3798.18 123.012   8
  -3   2  -7 3591.33 111.753   7
   3  -2  -7 3725.63 111.205   6
  -3   2  -7 3714.57 95.0285   5
  -3  -2  -7 3638.28 107.251   7
  -3  -2  -5 4364.71 151.864   4
  -3   2  -5 4664.17 120.318   4
  -3   2  -5 4899.51 159.794   3
   3   2  -5 4795.35 132.555   8
   3  -2  -5 4291.48 119.906   6
  -3  -2  -5 4718.69 119.651   7
  -3   2  -5 4053.48 101.424   5
  -3   2  -3 33374.9 537.692   4
   3  -2  -3 32358.0 551.253   6
  -3   2  -3 33602.6 534.955   5
   3  -2  -1 4186.21 96.0834   2
  -3  -2  -1 4240.77 114.695   3
  -3  -2  -1 3516.74 104.152   4
  -3   2  -1 4373.28 96.0441   4
   3   2  -1 4059.95 95.1621   4
   3  -2  -1 3721.72 104.861   6
  -3   2  -1 3996.07 101.298   7
   3   2   1 3735.44 101.671   4
  -3  -2   1 4065.14 96.5606   4
  -3  -2   1 4306.74 95.1254   3
   3   2   1 4178.41 113.489   3
  -3   2   1 3909.66 93.8387   4
   3  -2   1 3709.52 92.5151   4
  -3   2   1 4013.01 102.984   5
   3  -2   1 4272.25 112.504   6
   3  -2   3 32771.6 536.411   4
  -3  -2   3 32974.2 523.529   4
   3   2   3 35285.1 591.966   3
  -3  -2   3 31512.5 502.753   2
  -3   2   3 32876.6 527.518   2
   3  -2   3 33134.2 520.664   8
  -3  -2   3 28904.0 599.090   8
   3  -2   3 38410.4 568.150   7
  -3   2   3 31604.4 538.103   5
   3  -2   3 36126.6 555.716   6
   3  -2   5 4136.51 111.469   4
   3   2   5 4308.40 153.617   3
   3  -2   5 4357.74 101.683   8
  -3  -2   5 4574.74 151.388   8
   3  -2   5 4738.61 122.677   6
  -3   2   5 4187.15 106.356   5
   3  -2   7 3808.69 114.052   4
   3  -2   7 3840.51 142.882   3
   3  -2   7 4008.84 104.243   8
  -3  -2   7 4153.81 138.332   8
   3  -2   7 4556.19 120.860   6
   3  -2   7 4287.56 132.839   7
   3  -2   9 10904.7 301.644   3
   3  -2   9 11331.7 261.459   4
  -3  -2   9 12871.6 289.419   8
   3  -2   9 11889.6 242.250   8
   3  -2   9 12701.0 264.585   6
   3   2   9 12672.9 278.425   7
  -3   2   9 11774.8 225.309   5
   3  -2   9 13893.7 293.433   7
   3   2  11 4554.25 182.227   4
   3  -2  11 5194.21 193.047   3
   3  -2  11 5705.82 168.655   4
   3  -2  11 5862.00 196.278   1
  -3  -2  11 6165.39 186.944   8
   3  -2  11 5207.93 146.951   8
   3  -2  11 6457.18 193.075   7
   3   2  11 6328.51 183.087   7
   3  -2  13 4031.76 141.924   4
   3   2  13 3370.60 157.744   4
   3  -2  13 3685.73 165.432   3
   3  -2  13 3665.59 125.905   8
   3   2  13 4020.50 167.207   9
  -3  -2  13 3878.52 151.916   8
  -3   2  13 3674.81 122.714   8
   3  -2  13 4367.20 164.439   7
  -3  -2  13 4016.93 106.895   6
  -3   2  13 3327.78 82.0020   5
   3   2  13 4898.53 165.053   7
   3   2  15 1046.74 90.1857   4
   3  -2  15 1096.57 91.4075   3
   3  -2  15 1247.66 87.5490   1
   3   2  15 1088.28 99.8136   3
  -3   2  15 1166.21 67.7485   7
  -3  -2  15 1233.19 88.6967   8
   3   2  15 1242.60 100.304   9
  -3   2  15 1034.27 67.1041   8
   3  -2  15 1270.52 96.9591   9
   3  -2  15 1093.49 69.5648   8
  -3  -2  15 1172.65 74.7588   7
   3  -2  15 1341.21 93.6525   7
  -3  -2  15 968.861 36.6902   5
   3  -2  17 829.511 82.6324   3
   3   2  17 896.645 84.1618   4
   3  -2  17 940.090 71.6490   4
   3  -2  17 797.674 68.8342   1
   3   2  17 760.552 88.6258   3
   3  -2  17 947.212 70.7664   8
  -3   2  17 928.973 65.3590   7
  -3  -2  17 851.021 80.0751   8
   3   2  17 1032.14 100.117   9
  -3   2  17 773.359 62.8080   8
   3  -2  17 967.447 90.6316   9
   3   2  17 1088.96 88.6070   7
   3  -2  17 1010.55 88.4241   7
   3  -2  19 2448.58 122.681   4
   3   2  19 2291.92 119.104   1
  -3  -2  19 1737.01 107.700   3
   3   2  19 1835.90 139.675   3
   3  -2  19 2057.23 108.888   1
  -3   2  19 2312.58 110.878   7
  -3  -2  19 2377.59 121.390   7
   3   2  19 2683.32 147.326   7
   3   2  21 91.3783 28.2755   1
   3  -2  21 72.4286 34.6690   3
   3   2  21 50.0062 33.7674   3
   3  -2  21 42.3147 22.6219   1
  -3  -2  21 82.4264 29.1068   3
  -3  -2  21 62.0351 29.9052   4
   3   2  21 64.8685 33.7204   4
   3  -2  21 75.5048 29.0351   4
   3   2  21 98.7763 39.9692   7
  -3   2  21 83.8477 29.4168   7
  -3  -2  23 14.7263 21.4730   3
   3  -2  23-1.58959 20.2884   1
  -3  -2  23 4.73671 23.8122   4
  -3   2  23 6.80590 30.9985   4
   3   2  23-5.16572 32.0206   4
   3  -2  23 13.1050 22.7046   4
  -3   2  23 3.91782 24.6147   7
  -3  -2  25 330.072 54.7737   4
   3  -2  25 375.406 53.6405   4
  -3  -2  25 261.865 50.0701   3
   3  -3 -16 4975.17 222.552   9
   3   3 -16 5180.07 218.737   9
   3  -3 -14 794.319 82.6801   9
   3   3 -14 878.193 83.7662   9
  -3  -3 -14 894.128 31.2952   5
  -3  -3 -12 1772.24 82.6299   7
  -3  -3 -10 14385.8 288.140   7
  -3   3 -10 14773.7 268.151   5
   3  -3  -8 5152.28 174.090   9
   3   3  -8 5094.53 168.656   9
   3  -3  -8 5610.95 141.592   6
  -3   3  -8 5290.96 128.800   5
  -3  -3  -8 5204.02 139.301   7
  -3  -3  -6 330.391 45.5637   4
  -3   3  -6 360.072 31.6630   4
  -3   3  -6 379.998 46.3832   3
   3   3  -6 297.786 34.7170   8
  -3   3  -6 347.345 26.2577   5
  -3  -3  -6 291.075 27.1985   7
   3  -3  -6 319.156 27.6055   6
  -3   3  -4 10944.9 230.514   4
  -3  -3  -4 11929.1 278.468   4
   3   3  -4 11358.0 276.582   8
  -3   3  -4 12184.4 234.332   7
  -3   3  -4 12166.1 210.728   8
  -3   3  -4 12363.0 228.267   5
  -3  -3  -2 14495.7 309.488   4
   3   3  -2 15683.4 279.916   4
  -3   3  -2 17273.6 284.613   4
   3   3  -2 15595.0 363.903   8
   3  -3  -2 16319.3 299.165   5
  -3   3  -2 15673.7 291.039   7
  -3   3  -2 15378.1 290.987   5
   3   3   0 110.982 16.1104   3
  -3   3   0 115.451 15.7258   2
   3  -3   0 112.722 23.0989   1
  -3   3   0 77.5906 11.8061   4
   3   3   0 121.190 16.3249   4
  -3  -3   0 93.5277 15.5054   4
   3  -3   0 113.767 17.5005   5
  -3  -3   2 15174.3 248.102   3
   3   3   2 16715.5 317.063   3
  -3   3   2 15328.4 269.811   2
   3   3   2 13518.9 287.776   4
  -3  -3   2 15740.3 267.030   4
   3  -3   2 14972.5 263.194   4
  -3   3   2 14924.8 275.394   5
   3  -3   2 14828.1 283.845   5
   3  -3   4 11943.8 231.414   4
  -3  -3   4 12478.3 223.310   4
  -3   3   4 12975.4 235.620   2
  -3  -3   4 12323.3 321.621   8
   3  -3   4 13392.3 261.350   8
  -3   3   4 11628.1 236.625   5
   3  -3   4 13259.7 252.232   5
   3  -3   4 13591.1 271.322   7
   3  -3   6 445.354 31.0819   4
  -3  -3   6 423.277 25.1413   4
   3  -3   6 400.307 47.6976   1
   3  -3   6 540.044 37.7312   8
  -3  -3   6 538.280 58.6061   8
   3  -3   6 528.383 42.8716   7
  -3   3   6 449.009 30.4590   5
   3  -3   8 5165.52 140.604   4
   3  -3   8 5337.73 183.247   1
   3  -3   8 5491.25 146.144   8
  -3  -3   8 5685.70 190.444   8
  -3   3   8 5177.98 124.348   5
   3  -3   8 6138.83 173.459   7
   3  -3   8 5793.43 145.886   6
   3  -3  10 14114.4 349.292   3
   3  -3  10 15047.3 306.388   4
   3  -3  10 15298.8 308.189   8
  -3  -3  10 15717.4 360.446   8
   3  -3  10 16572.2 349.537   7
   3  -3  12 1972.01 112.369   3
   3  -3  12 1720.42 104.005   1
   3  -3  12 1907.73 89.2049   8
   3  -3  12 1970.21 102.875   9
   3   3  12 2079.09 114.719   9
  -3  -3  12 1849.52 107.828   8
  -3   3  12 1853.78 59.6472   5
   3  -3  12 2218.19 88.8607   6
   3  -3  12 2181.12 112.124   7
   3  -3  14 734.874 72.3186   3
   3   3  14 703.869 74.7895   4
   3  -3  14 711.131 58.3525   8
  -3   3  14 689.776 48.7834   7
  -3  -3  14 746.590 71.8983   8
   3   3  14 776.841 77.6314   9
   3  -3  14 757.010 70.3992   9
   3  -3  14 855.139 75.2107   7
  -3  -3  14 667.298 44.4235   6
   3   3  16 4485.21 200.026   4
   3  -3  16 5376.49 169.916   4
   3  -3  16 4634.40 194.152   3
   3  -3  16 4782.46 171.433   1
   3   3  16 4204.60 208.153   3
  -3  -3  16 3892.70 151.050   3
  -3   3  16 5199.70 153.674   7
   3   3  16 5920.31 231.798   9
   3  -3  16 4871.61 171.555   8
  -3  -3  16 5010.01 171.934   7
  -3  -3  16 4851.79 198.133   8
   3  -3  16 5309.90 209.123   9
  -3   3  16 4706.92 156.013   8
  -3  -3  16 4332.43 96.6036   5
   3  -3  16 5773.87 213.713   7
   3   3  16 5935.66 203.383   7
   3   3  18 2252.79 141.886   4
   3  -3  18 2665.56 120.443   4
   3  -3  18 2351.02 118.117   1
  -3  -3  18 2066.31 111.863   3
   3   3  18 2017.99 148.661   3
  -3   3  18 2557.16 110.757   7
   3   3  18 2995.05 173.414   9
   3  -3  18 2638.79 152.908   9
   3   3  18 2678.67 144.943   7
   3  -3  18 2826.36 154.385   7
   3  -3  20 1385.18 88.2948   4
  -3  -3  20 1125.11 92.9506   4
   3  -3  20 1093.14 98.4153   3
  -3   3  20 1421.55 86.7680   7
  -3  -3  20 885.110 75.3424   3
   3   3  20 1270.90 87.9270   1
   3  -3  20 1117.68 79.8585   1
   3   3  20 1157.85 114.847   3
   3  -3  22 1243.78 107.684   3
   3   3  22 1177.55 106.900   4
  -3  -3  22 1002.72 86.9280   4
   3  -3  22 1252.42 86.0871   4
  -3   3  22 1417.70 91.7397   7
   3   3  22 1209.31 80.8746   1
  -3  -3  22 1039.02 83.5662   3
   3  -3  22 1114.86 79.0655   1
  -3  -3  24 689.372 70.3756   3
  -3  -3  24 702.864 71.3618   4
   3  -3  24 835.109 71.0164   4
   3   4 -15 2366.63 140.929   9
   3  -4 -15 2168.73 140.784   9
   3  -4 -13 10977.6 334.628   9
  -3  -4 -13 12362.7 250.371   6
   3  -4 -11 2959.01 140.185   9
  -3  -4 -11 3081.52 102.151   7
  -3   4  -9 5250.95 160.512   4
   3   4  -9 5494.23 145.494   1
  -3   4  -9 5392.45 206.522   3
  -3  -4  -9 4297.09 120.980   7
   3   4  -9 4082.41 152.421   9
   3  -4  -9 3846.87 155.755   9
   3  -4  -9 4145.41 118.214   6
  -3   4  -9 4416.48 116.458   5
  -3   4  -7 26974.2 546.661   3
  -3   4  -7 25893.5 467.387   4
  -3  -4  -7 24517.6 450.357   7
  -3   4  -7 24063.4 445.431   5
  -3   4  -5 8088.75 168.425   4
  -3  -4  -5 8778.79 245.590   4
  -3   4  -5 9177.11 224.531   3
  -3   4  -5 7790.67 165.297   8
  -3   4  -5 7805.60 180.229   7
   3   4  -5 6654.73 214.433   8
  -3   4  -5 7860.91 171.359   5
   3  -4  -5 7717.82 177.393   5
   3   4  -3 4578.68 96.1102   4
  -3   4  -3 4185.60 100.123   4
  -3  -4  -3 4568.51 146.736   4
   3  -4  -3 4450.35 115.755   1
  -3   4  -3 4025.25 108.300   7
   3   4  -3 3704.48 160.974   8
  -3   4  -3 3704.83 102.940   8
  -3   4  -3 4023.90 109.494   5
   3  -4  -3 4361.14 117.041   5
   3  -4  -1 22456.8 419.058   1
  -3   4  -1 23080.2 390.087   2
   3   4  -1 21939.9 374.570   4
  -3  -4  -1 23470.4 407.918   4
  -3   4  -1 19880.0 365.501   4
  -3   4  -1 21342.2 372.427   7
   3  -4  -1 25045.6 401.991   5
  -3   4   1 28048.2 441.715   2
  -3  -4   1 25224.1 441.134   4
   3   4   1 25606.3 451.912   4
   3  -4   1 29145.4 460.039   5
  -3   4   1 27137.0 448.325   5
  -3   4   1 26223.1 424.985   7
  -3   4   3 3844.48 99.0189   2
   3  -4   3 3199.41 105.672   2
  -3  -4   3 3929.55 91.6763   4
   3   4   3 3031.12 112.378   4
   3  -4   3 3562.14 87.0734   4
   3  -4   3 3944.17 117.380   7
  -3   4   3 3679.35 102.899   5
   3  -4   3 4282.34 113.359   5
  -3  -4   5 5189.51 111.095   4
   3  -4   5 5426.73 118.782   4
   3  -4   5 5448.12 171.609   8
  -3  -4   5 5658.18 212.162   8
   3  -4   5 5688.22 141.453   5
  -3   4   5 5091.57 128.828   5
   3  -4   5 5344.22 149.603   7
   3  -4   7 28369.2 478.485   4
  -3  -4   7 28424.2 457.971   4
  -3  -4   7 25591.6 454.829   3
   3  -4   7 32506.4 574.500   1
   3  -4   7 30691.2 543.018   8
  -3  -4   7 30533.9 626.666   8
  -3   4   7 27319.4 477.993   5
   3  -4   7 31847.5 541.910   7
   3  -4   7 31281.3 505.889   5
   3  -4   9 4548.54 124.527   4
   3  -4   9 5230.57 136.356   5
   3  -4   9 4907.21 175.016   1
   3  -4   9 4466.39 148.141   8
  -3  -4   9 4533.70 190.421   8
   3  -4   9 4808.34 161.184   7
  -3   4   9 4383.72 116.457   5
  -3  -4  11 3302.55 158.111   8
   3  -4  11 3217.34 126.222   8
   3  -4  11 3447.69 139.038   7
   3  -4  13 15048.7 306.018   4
   3   4  13 10423.5 352.615   4
   3  -4  13 13141.4 335.163   1
  -3  -4  13 11934.6 291.578   3
   3   4  13 15394.9 381.540   9
   3  -4  13 13793.3 343.718   9
   3  -4  13 14704.5 339.873   8
  -3  -4  13 14988.2 389.651   8
  -3   4  13 13783.4 281.994   7
   3  -4  13 16286.2 371.824   7
   3  -4  13 19369.8 322.620   6
   3   4  15 1578.35 118.966   4
   3  -4  15 2247.18 96.5824   4
   3  -4  15 1846.79 102.241   1
  -3  -4  15 1654.19 86.9004   3
  -3   4  15 2055.16 86.1322   7
  -3  -4  15 2149.10 136.559   8
   3  -4  15 2125.28 114.838   8
   3   4  15 2297.96 139.895   9
   3  -4  15 2087.40 123.427   9
   3  -4  15 2329.40 129.003   7
  -3  -4  15 1797.14 82.8377   6
   3   4  17 455.805 66.9405   4
   3  -4  17 456.115 46.3752   4
  -3  -4  17 328.375 41.3835   3
   3  -4  17 414.449 50.0032   1
  -3  -4  17 472.666 70.6593   8
  -3  -4  17 446.584 52.0317   7
   3   4  17 602.749 79.9230   9
  -3   4  17 382.584 43.3309   8
  -3   4  17 454.072 43.3007   7
   3  -4  17 426.639 60.9784   9
   3  -4  17 541.330 69.2786   7
  -3  -4  17 463.537 24.9265   5
  -3  -4  17 362.142 24.7217   6
  -3  -4  19 4577.33 184.465   4
   3   4  19 4673.01 223.361   4
   3  -4  19 5796.84 179.912   4
  -3   4  19 6415.50 182.227   7
   3  -4  19 5579.13 213.649   8
  -3  -4  19 4491.05 169.569   3
   3  -4  19 5145.33 181.132   1
   3   4  19 4419.14 231.764   3
   3  -4  21 2244.40 107.629   4
  -3  -4  21 1651.42 105.387   4
   3   4  21 1995.69 109.703   1
   3  -4  21 1734.74 101.438   1
   3   4  21 1657.29 141.837   3
  -3  -4  21 1460.89 95.0629   3
  -3   4  21 2342.93 111.658   7
   3  -4  23 539.515 58.7460   1
  -3  -4  23 412.943 53.5374   3
   3  -4  23 562.950 55.9557   4
  -3  -4  23 468.609 56.7836   4
  -3   4  23 633.558 64.3474   7
  -3  -5 -16 6227.04 119.547   6
   3  -5 -14 2300.88 139.293   9
  -3  -5 -14 2486.79 102.919   7
   3  -5 -14 2434.76 89.1464   6
   3  -5 -12 2959.14 149.552   9
   3  -5 -12 3287.09 106.427   6
  -3   5 -10 17137.3 345.608   4
  -3   5 -10 16694.2 418.085   3
  -3  -5 -10 13869.6 280.249   7
   3  -5 -10 12649.4 338.720   9
   3   5 -10 14004.6 339.375   9
   3  -5 -10 13756.7 281.303   6
  -3   5 -10 14028.9 281.456   5
   3   5  -8 11818.1 287.017   9
  -3   5  -8 12215.2 257.042   8
  -3   5  -8 12500.1 249.735   5
  -3  -5  -8 11515.3 242.528   7
   3  -5  -8 12227.0 251.704   5
  -3   5  -6 9993.08 204.436   4
  -3   5  -6 9462.36 212.082   8
  -3  -5  -6 9090.68 206.595   7
  -3   5  -6 10242.3 214.296   5
   3  -5  -6 10499.1 218.826   5
   3   5  -4 8905.81 158.943   4
  -3   5  -4 7659.35 163.289   4
   3   5  -4 8024.49 263.626   8
  -3   5  -4 7936.63 188.355   8
  -3   5  -4 8614.15 188.526   7
   3  -5  -4 8244.00 191.544   5
  -3   5  -4 9251.76 192.141   5
   3   5  -2 15789.8 267.123   4
   3  -5  -2 14950.3 296.281   1
  -3   5  -2 15455.2 293.765   2
  -3   5  -2 14975.5 310.904   8
  -3   5  -2 15188.4 276.474   7
  -3   5  -2 15439.7 290.275   5
   3  -5  -2 15557.2 297.224   5
  -3  -5   0 19086.5 353.343   4
   3   5   0 17658.2 338.905   4
  -3   5   0 19089.6 340.662   2
   3  -5   0 19156.2 372.238   1
   3  -5   0 17872.7 334.750   2
  -3   5   0 19480.9 323.315   7
   3  -5   0 19916.7 356.933   5
  -3   5   2 15032.5 272.507   2
   3  -5   2 11405.2 292.242   1
   3  -5   2 12949.5 272.671   2
  -3  -5   2 15271.7 267.101   4
   3   5   2 13600.5 291.882   4
  -3   5   2 14228.0 278.954   5
  -3   5   2 14990.1 248.570   7
   3  -5   2 15558.5 290.855   5
   3  -5   4 7716.37 194.439   2
  -3   5   4 8626.53 185.795   2
   3   5   4 7207.20 210.824   4
  -3  -5   4 9264.82 170.920   4
   3  -5   4 8359.00 165.173   4
  -3   5   4 8413.82 190.783   5
   3  -5   4 9563.96 203.912   5
   3  -5   6 10353.1 209.952   4
  -3  -5   6 11264.4 205.947   4
  -3   5   6 12175.1 242.514   1
   3  -5   6 12762.6 319.961   8
  -3  -5   6 11900.7 351.335   8
   3  -5   6 12138.4 247.154   5
   3  -5   6 12646.0 271.512   7
  -3   5   6 11133.4 233.680   5
   3  -5   8 13019.5 233.715   4
  -3  -5   8 12917.1 379.898   8
   3  -5   8 12957.0 333.532   8
   3  -5   8 13546.7 264.639   5
   3  -5   8 12495.0 291.857   7
   3  -5  10 15940.1 368.436   8
  -3  -5  10 15853.6 427.863   8
   3  -5  10 16510.5 352.126   7
   3  -5  12 4597.43 125.755   4
  -3  -5  12 3573.31 114.919   3
   3  -5  12 3634.61 148.200   1
   3  -5  12 3960.85 151.584   9
   3   5  12 4299.60 175.075   9
  -3   5  12 4087.94 108.955   7
  -3  -5  12 4251.85 203.979   8
   3  -5  12 4699.81 178.309   8
   3  -5  12 4776.75 175.906   7
   3  -5  14 2779.57 100.431   4
  -3   5  14 2688.26 90.7470   7
   3  -5  14 2639.08 132.436   9
  -3  -5  14 2655.64 164.425   8
   3   5  14 2785.97 151.723   9
   3  -5  14 2642.92 135.427   8
   3  -5  14 2896.31 105.311   6
   3  -5  14 2844.91 141.453   7
   3   5  16 4433.25 219.470   4
   3  -5  16 6005.59 166.834   4
  -3  -5  16 4622.15 157.395   3
   3  -5  16 5241.52 187.300   1
  -3  -5  16 5857.92 193.216   7
   3   5  16 6360.68 254.777   9
  -3  -5  16 5797.04 253.763   8
  -3   5  16 6009.67 158.191   7
   3  -5  16 6103.10 222.972   9
  -3  -5  16 5696.43 132.127   5
   3  -5  16 6721.73 178.930   6
   3  -5  16 6393.21 232.907   7
  -3  -5  18 1589.21 97.2404   4
   3  -5  18 2134.78 94.2635   4
   3   5  18 1499.61 124.138   4
  -3  -5  18 1612.71 88.4827   3
   3  -5  18 1746.71 102.280   1
  -3   5  18 2219.89 93.7390   7
   3  -5  18 2031.13 132.370   8
  -3  -5  18 1992.01 112.310   7
   3  -5  18 2063.42 130.945   9
  -3  -5  18 1463.35 55.6748   6
  -3  -5  18 1695.36 54.9065   5
   3  -5  20 19.0196 21.8255   1
   3   5  20-3.47445 31.5085   3
  -3  -5  20 5.91361 17.7748   3
  -3  -5  20-1.58998 19.3163   4
   3  -5  20 16.0247 18.4090   4
   3   5  20 18.0954 28.8712   4
  -3   5  20 23.6717 20.6940   7
   3  -5  22 1889.49 110.286   1
  -3  -5  22 1392.53 90.4035   3
   3  -5  22 1868.78 93.9619   4
  -3  -5  22 1494.80 92.9329   4
  -3   5  22 1945.89 102.790   7
  -3  -5  24 524.833 57.4429   3
  -3  -6 -17 1688.53 49.6220   6
   3   6 -15 262.439 58.5205   1
   3   6 -15 531.561 65.7176   9
   3  -6 -15 426.254 65.5429   9
  -3  -6 -15 590.187 35.9286   5
   3  -6 -15 401.461 37.4874   6
   3  -6 -13 2023.98 127.864   9
  -3  -6 -13 2169.05 90.9638   7
   3  -6 -13 2292.95 88.4844   6
   3   6 -11 1754.66 96.7739   1
  -3   6 -11 1711.43 122.905   3
   3  -6  -9 716.492 64.1075   9
   3   6  -9 810.876 63.8039   9
  -3   6  -9 892.844 56.5998   8
  -3  -6  -9 816.617 46.8472   7
  -3   6  -9 779.154 50.7784   5
   3  -6  -9 918.273 53.4151   5
  -3   6  -7 4819.08 127.551   4
  -3   6  -7 4680.16 140.971   8
   3  -6  -7 4478.46 153.835   9
   3   6  -7 4765.14 150.754   9
  -3   6  -7 4424.68 137.170   5
  -3  -6  -7 4641.95 127.967   7
  -3   6  -5 1649.09 56.6636   4
  -3   6  -5 1407.72 71.1435   7
  -3   6  -5 1415.83 73.0589   8
  -3   6  -5 1635.02 70.8134   5
   3  -6  -5 1581.77 72.0812   5
   3   6  -3 276.792 19.9861   4
  -3   6  -3 260.646 20.2774   4
  -3  -6  -3 312.411 43.0291   4
   3   6  -3 261.857 47.9541   8
  -3   6  -3 260.825 36.2547   8
  -3   6  -3 253.671 25.7033   7
   3  -6  -3 221.897 28.0616   5
  -3   6  -3 230.619 26.9107   5
   3   6  -1 4878.18 121.624   4
  -3  -6  -1 5205.23 155.631   4
   3  -6  -1 4507.78 140.657   1
  -3   6  -1 5092.84 132.008   2
  -3   6  -1 4752.40 117.319   7
   3  -6  -1 5242.87 147.581   5
  -3  -6   1 5686.10 141.806   4
   3   6   1 4904.19 139.189   4
  -3   6   1 5393.58 133.435   2
   3  -6   1 5206.98 157.708   1
   3  -6   1 4988.58 131.565   2
  -3   6   1 5071.97 111.545   7
   3  -6   1 4379.63 128.308   7
  -3   6   1 4811.14 136.444   5
   3  -6   1 5194.53 151.262   5
   3  -6   3 175.099 24.3338   2
  -3   6   3 294.038 37.3283   1
  -3  -6   3 320.100 25.0566   4
   3   6   3 189.126 29.1008   4
  -3   6   3 235.467 26.5210   5
   3  -6   3 216.966 27.3347   7
  -3   6   3 240.743 16.4739   7
   3  -6   3 256.238 30.3500   5
   3  -6   5 1107.32 62.7195   2
  -3   6   5 1378.95 71.4860   1
  -3  -6   5 1207.49 44.6857   4
   3   6   5 960.111 71.4422   4
   3  -6   5 1195.70 64.9200   5
  -3   6   5 1126.09 57.7124   5
   3  -6   5 1438.81 73.8788   7
   3  -6   7 5253.60 115.094   4
  -3   6   7 5588.22 146.124   1
   3  -6   7 4806.42 152.403   2
   3  -6   7 6279.02 225.133   8
   3  -6   7 5721.35 172.716   7
   3  -6   7 5532.15 153.731   5
  -3   6   7 5018.52 140.846   5
  -3  -6   9 847.901 97.6337   8
   3  -6   9 848.629 67.1071   7
  -3   6   9 680.197 29.5855   7
   3  -6   9 769.593 82.0862   8
   3  -6   9 777.139 51.5748   5
  -3   6   9 661.094 44.6151   5
  -3  -6  11 1224.38 45.3471   4
   3  -6  11 1317.47 56.0856   4
   3   6  11 1294.64 90.8704   9
   3  -6  11 1276.09 87.4995   7
   3  -6  11 1208.89 75.9688   9
   3  -6  11 1363.78 107.350   8
  -3  -6  11 1491.74 128.669   8
  -3   6  11 1362.88 47.5323   7
   3  -6  11 1195.70 81.3236   1
   3  -6  13 2411.94 84.5134   4
  -3  -6  13 2416.34 87.5587   3
   3  -6  13 2289.31 116.209   1
   3  -6  13 2658.66 134.655   7
   3   6  13 2580.65 141.985   9
   3  -6  13 2420.65 121.156   9
  -3   6  13 2686.12 79.8826   7
  -3  -6  13 2802.28 181.630   8
  -3  -6  15 415.275 39.6407   3
   3  -6  15 460.989 38.1409   4
   3   6  15 383.947 65.1311   4
   3  -6  15 416.507 50.8119   1
   3  -6  15 486.395 59.8621   9
   3   6  15 579.329 75.7262   9
  -3   6  15 510.513 36.6732   7
  -3  -6  15 478.273 80.0590   8
   3  -6  15 504.689 63.2412   7
   3  -6  15 447.228 42.5007   6
   3  -6  17 1718.39 76.8560   4
   3   6  17 1160.89 112.832   4
  -3  -6  17 1326.32 75.2734   3
  -3  -6  17 1326.34 81.3058   4
   3  -6  17 1413.11 92.5331   1
  -3   6  17 1763.85 76.9494   7
  -3  -6  17 1577.04 98.1171   7
   3  -6  17 1635.89 126.219   8
   3   6  17 1827.13 136.885   9
   3  -6  17 1720.11 84.8415   6
  -3  -6  17 1636.22 62.7391   5
   3  -6  17 1697.50 122.589   7
   3  -6  19 600.584 61.3950   1
  -3  -6  19 598.901 53.6743   4
   3  -6  19 779.629 53.5159   4
  -3  -6  19 585.185 53.0088   3
   3   6  19 525.746 79.0545   4
  -3  -6  19 554.230 33.6298   6
  -3  -6  19 675.650 33.4250   5
  -3   6  19 817.382 56.8246   7
   3  -6  21 394.824 53.6181   1
   3  -6  21 363.697 39.4977   4
  -3  -6  21 320.218 40.5535   4
  -3   6  21 423.327 45.6328   7
  -3  -7 -18 134.124 13.7481   6
  -3  -7 -16 2764.63 80.7678   5
   3  -7 -16 2221.00 91.6167   6
   3   7 -14 74.1941 39.2044   1
  -3  -7 -14 106.297 23.7662   7
   3   7 -14 76.6437 30.2028   8
   3  -7 -14 78.0035 32.6467   9
   3   7 -14 109.751 33.0554   9
   3  -7 -14 73.4380 20.3351   6
  -3  -7 -14 110.824 20.9068   5
  -3  -7 -12 201.586 26.1807   7
   3  -7 -12 205.855 40.4449   9
   3   7 -10 3947.23 154.499   9
  -3   7 -10 3614.18 133.994   8
  -3   7  -8 950.219 77.8997   3
   3   7  -8 950.640 69.3151   1
  -3   7  -8 640.826 52.2007   8
   3   7  -8 772.790 57.7572   9
   3  -7  -8 552.280 53.3618   9
  -3  -7  -8 706.553 42.8388   7
   3  -7  -8 710.489 48.5579   5
  -3   7  -6 3334.48 86.9882   4
  -3   7  -6 2960.40 111.095   7
  -3   7  -6 2913.25 117.052   8
   3  -7  -6 3068.41 109.343   5
  -3   7  -6 3066.06 108.846   5
  -3   7  -4 1288.88 46.1848   4
   3   7  -4 1324.10 43.1531   4
  -3   7  -4 1336.79 107.906   1
  -3   7  -4 1140.18 79.4542   8
  -3   7  -4 1099.12 59.8931   7
  -3   7  -4 1140.44 64.4566   5
   3  -7  -4 1262.71 69.5935   5
   3   7  -2 94.7492 14.2176   4
  -3   7  -2 55.8637 10.8619   4
  -3  -7  -2 55.1497 24.0069   4
  -3   7  -2 42.9893 27.4689   1
  -3   7  -2 58.3740 15.1017   2
   3   7  -2 54.8146 6.58256   2
   3  -7  -2 70.2156 21.5395   1
  -3   7  -2 56.8321 13.8000   7
   3  -7  -2 67.4809 19.2410   5
  -3  -7   0 9720.95 226.289   4
   3   7   0 8778.72 196.982   4
   3  -7   0 8353.35 216.185   1
  -3   7   0 9266.62 194.751   2
   3  -7   0 8268.45 190.858   2
  -3   7   0 9174.55 177.625   7
   3  -7   0 8337.85 209.071   5
   3   7   2 140.180 24.5721   4
  -3  -7   2 179.302 23.3713   4
  -3   7   2 172.442 22.5804   2
   3  -7   2 167.609 22.5185   2
  -3   7   2 217.949 38.4177   1
  -3   7   2 167.441 15.7260   7
   3  -7   2 152.884 25.6328   5
   3   7   4 1047.66 72.9895   4
  -3  -7   4 1037.18 46.1629   4
  -3   7   4 1564.17 87.2507   1
  -3   7   4 1336.61 61.1244   2
   3  -7   4 953.680 59.6248   2
  -3   7   4 1205.24 35.5894   7
   3  -7   4 1011.10 62.3520   7
  -3   7   4 1064.04 61.2297   5
   3  -7   4 1251.85 68.7598   5
   3  -7   6 3117.00 113.034   2
   3  -7   6 3338.94 126.590   7
   3  -7   6 3224.03 118.292   5
  -3  -7   8 1038.15 37.4158   4
   3  -7   8 842.127 59.6351   2
   3  -7   8 1059.20 73.2250   7
  -3   7   8 834.204 54.3642   5
   3  -7   8 1053.52 63.9513   5
   3  -7  10 4400.66 100.207   4
  -3  -7  10 3736.72 90.3708   4
  -3   7  10 4667.12 123.895   1
   3  -7  10 3950.83 155.339   1
  -3  -7  10 3866.06 88.1887   2
   3  -7  10 4464.15 168.682   7
  -3  -7  10 4109.95 227.913   8
   3  -7  10 3995.92 141.370   9
  -3   7  10 4461.57 80.1025   7
   3   7  10 4526.37 169.366   9
   3  -7  12 366.216 26.8164   4
  -3  -7  12 275.409 20.2200   4
   3  -7  12 198.286 36.7051   1
  -3  -7  12 319.466 71.1228   8
   3  -7  12 242.933 44.5662   7
   3   7  12 272.227 47.8265   9
   3  -7  12 277.421 34.4743   5
  -3  -7  14 93.8907 13.7298   4
   3  -7  14 83.4437 16.0837   4
   3   7  14 70.9688 34.0457   4
   3  -7  14 94.0356 22.8409   5
  -3  -7  14 76.1012 51.4672   8
   3   7  14 105.933 38.3718   9
   3  -7  14 141.267 37.4232   7
   3  -7  16 2883.06 92.3484   4
  -3  -7  16 2591.81 75.8651   4
  -3  -7  16 2376.37 97.9607   4
   3  -7  16 2484.82 125.648   1
   3   7  16 2811.03 168.172   9
  -3  -7  16 2688.49 128.778   7
   3  -7  16 2790.26 181.511   8
  -3  -7  16 2664.47 196.550   8
  -3   7  16 2821.62 87.7624   7
   3  -7  16 2961.98 157.941   7
  -3  -7  16 2552.54 90.6830   5
   3  -7  16 3150.70 115.889   6
   3   7  18 112.694 44.6115   4
   3  -7  18 162.935 24.1038   4
  -3  -7  18 144.561 18.7680   4
  -3  -7  18 123.346 23.8431   4
   3  -7  18 152.103 35.7191   1
   3  -7  18 152.327 53.4456   8
   3  -7  18 173.584 29.9428   6
  -3  -7  18 174.366 22.2836   5
  -3   7  18 158.288 25.1496   7
   3  -7  20 119.064 35.5792   1
  -3  -7  20 105.522 23.2781   4
   3   7  20 133.527 49.6789   4
   3  -7  20 124.488 24.0818   4
  -3  -7  20 101.832 16.5627   6
  -3  -7  20 132.648 16.2371   5
  -3   7  20 166.871 28.7420   7
   3  -7  22 595.100 45.3941   4
   3  -8 -17 683.465 51.8036   6
  -3  -8 -17 839.591 42.7585   5
   3   8 -15 1298.98 118.644   1
   3   8 -15 1023.22 95.5892   8
   3  -8 -15 941.209 60.5804   6
  -3  -8 -15 1268.59 64.5992   5
   3  -8 -13 1532.70 76.2246   5
  -3  -8 -13 1580.27 72.9486   7
  -3   8 -11 4586.90 202.287   3
   3   8 -11 4870.54 182.118   1
  -3   8  -9 8017.13 174.497   4
  -3   8  -9 8779.24 261.773   3
   3   8  -9 8820.63 235.694   1
   3  -8  -9 5186.15 195.865   9
   3   8  -9 6822.65 207.518   9
  -3   8  -9 6583.24 200.721   8
   3  -8  -9 6804.64 185.552   5
  -3   8  -7 735.533 60.3172   8
   3   8  -7 818.919 55.9077   9
   3  -8  -7 591.205 52.7213   9
  -3  -8  -7 668.238 43.7220   7
   3  -8  -7 812.296 57.2886   5
  -3   8  -5 3680.69 91.9660   4
  -3   8  -5 4095.33 157.087   8
  -3   8  -5 4166.00 135.424   5
   3   8  -3 21057.1 343.163   4
  -3   8  -3 20048.8 339.440   4
  -3   8  -3 18050.8 377.185   2
   3   8  -3 20344.5 316.688   2
  -3   8  -3 18223.1 443.078   8
  -3   8  -3 19009.8 375.209   7
   3  -8  -3 22098.7 411.885   5
   3   8  -1 1677.75 67.6245   4
  -3   8  -1 1787.63 74.2097   2
   3  -8  -1 1876.81 96.1663   1
  -3   8  -1 2343.23 132.186   1
  -3   8  -1 1560.44 65.6721   7
   3  -8  -1 1872.86 88.7922   5
   3  -8  -1 1211.13 57.4970   7
   3   8   1 1687.43 79.9418   4
  -3  -8   1 1950.51 89.0997   4
  -3   8   1 1759.54 72.8810   2
   3  -8   1 1604.84 70.9523   2
  -3   8   1 1630.43 59.5045   7
   3  -8   1 1850.24 88.8082   5
   3  -8   1 1814.71 75.8041   7
   3  -8   3 17595.2 369.242   2
  -3   8   3 23533.6 464.455   1
  -3   8   3 20820.1 376.799   2
  -3  -8   3 21856.3 374.187   4
   3   8   3 18132.8 410.064   4
  -3   8   3 17660.1 386.175   5
   3  -8   3 23089.6 404.659   7
   3  -8   3 20450.1 406.681   5
   3   8   5 3626.25 155.705   4
   3  -8   5 4058.86 131.964   2
  -3   8   5 5130.36 168.936   1
  -3   8   5 4739.92 132.900   2
   3  -8   5 4763.30 153.497   7
  -3   8   5 4203.60 138.105   5
   3  -8   5 4660.62 148.443   5
  -3  -8   7 797.353 32.1215   4
   3  -8   7 704.137 52.9499   2
   3  -8   7 660.036 57.9977   7
   3  -8   7 730.553 56.3762   5
  -3  -8   9 7009.28 126.059   4
  -3   8   9 8658.86 204.569   1
  -3  -8   9 6163.82 109.979   2
   3  -8   9 7005.78 192.948   2
   3   8   9 7777.16 220.144   9
   3  -8   9 7306.50 218.234   7
   3  -8   9 6939.78 195.864   5
   3  -8  11 3875.35 88.2245   4
   3  -8  11 3704.84 138.746   2
   3  -8  11 3475.01 149.201   1
  -3  -8  11 3557.10 81.1643   2
   3   8  11 3722.81 163.912   9
   3  -8  11 3922.06 161.878   7
   3  -8  11 3662.66 132.506   5
   3  -8  13 1723.75 55.1221   4
  -3  -8  13 1482.55 46.7773   4
   3  -8  13 1677.59 100.943   1
   3  -8  13 1808.12 113.985   7
   3  -8  13 1775.29 89.0821   5
  -3  -8  15 1174.38 41.2225   4
   3   8  15 791.278 95.9293   4
  -3  -8  15 1038.40 51.0040   4
   3  -8  15 1208.59 47.8176   4
   3  -8  15 1020.89 80.3765   1
  -3  -8  15 1239.60 141.845   8
   3  -8  15 1074.81 85.0072   9
   3  -8  15 1160.66 97.4412   7
   3  -8  15 1301.84 131.816   8
  -3  -8  15 1025.86 79.4477   7
  -3  -8  15 1149.49 61.4062   5
   3  -8  15 1087.51 70.5874   5
  -3   8  15 1048.76 39.6053   7
   3  -8  17 866.458 44.3518   4
  -3  -8  17 702.866 43.1625   4
  -3  -8  17 872.628 37.4263   4
   3  -8  17 872.881 76.8465   1
   3  -8  17 850.844 80.9363   9
   3  -8  17 724.342 104.005   8
   3  -8  17 840.662 61.3591   6
   3  -8  19 1375.11 102.183   1
   3   8  19 771.535 100.888   4
   3  -8  19 1130.32 51.9518   4
  -3  -8  19 1082.45 43.8433   4
  -3  -8  19 926.736 50.1816   4
  -3  -8  19 966.511 51.8336   5
   3  -8  19 1258.59 74.4389   6
  -3  -8  21 138.114 21.9609   4
   3  -8  21 151.052 21.9397   4
   3  -9 -18 1908.37 89.0148   6
  -3  -9 -18 2108.23 70.8794   5
   3   9 -16 355.623 60.5116   8
   3  -9 -16 377.277 40.5351   6
  -3  -9 -16 452.897 39.7397   5
   3   9 -14 8904.22 307.555   1
   3   9 -14 6319.83 245.012   8
  -3  -9 -14 5642.80 163.162   7
  -3  -9 -14 7829.61 200.108   5
  -3  -9 -12 4388.46 123.370   7
  -3   9 -12 4146.04 160.034   8
   3  -9 -12 4616.81 150.090   5
  -3   9 -10 3143.55 157.394   3
  -3  -9 -10 2104.41 76.6566   7
  -3   9  -8 8517.17 171.807   4
  -3   9  -8 9255.93 265.343   3
   3   9  -8 9729.39 260.844   1
  -3   9  -8 7075.48 224.212   8
   3  -9  -8 7411.19 213.529   5
   3   9  -6 5673.17 151.076   9
  -3   9  -6 5271.65 188.342   8
   3  -9  -6 5482.90 171.088   5
  -3   9  -4 3487.82 169.796   8
   3  -9  -4 3974.84 144.411   5
   3   9  -2 5468.71 110.193   2
  -3   9  -2 5618.13 156.258   2
  -3   9  -2 5747.24 125.801   4
   3  -9  -2 5627.83 177.100   5
  -3   9   0 7906.84 187.116   2
   3   9   0 7458.50 187.401   4
   3  -9   0 7507.10 213.927   5
   3  -9   0 7556.27 183.515   7
  -3   9   2 5847.68 155.704   2
   3  -9   2 5772.27 180.849   5
   3  -9   2 5999.68 166.894   7
   3  -9   4 3724.39 123.454   2
  -3   9   4 4161.30 126.758   2
   3   9   4 3830.76 154.585   4
   3  -9   4 4247.82 142.411   7
   3  -9   4 4165.35 146.572   5
  -3  -9   6 5913.33 127.270   4
  -3   9   6 6262.23 166.963   2
   3  -9   6 5770.75 182.882   7
   3  -9   6 5834.79 180.400   5
  -3  -9   8 7041.48 128.353   4
   3  -9   8 7453.89 199.755   2
   3  -9   8 7578.59 225.293   7
   3  -9   8 7436.73 210.068   5
   3  -9  10 2298.63 122.550   1
   3  -9  10 2343.55 104.963   9
   3  -9  10 2541.71 128.887   7
  -3   9  12 5236.96 144.312   1
  -3  -9  12 4305.38 91.1882   2
   3  -9  12 4355.50 175.262   1
   3  -9  12 4606.06 164.977   9
   3  -9  12 5145.36 195.301   7
   3  -9  12 4797.62 156.578   5
  -3  -9  14 1742.77 58.8245   4
   3  -9  14 6298.35 93.8358   4
  -3  -9  14 4074.23 66.3314   4
   3   9  14 3670.49 211.011   4
  -3  -9  14 5698.44 103.839   2
   3  -9  14 5622.39 175.414   2
   3  -9  14 6897.95 308.724   8
   3  -9  14 6700.66 230.014   7
   3  -9  14 6045.37 192.480   9
   3  -9  14 6798.67 181.529   5
  -3  -9  16 365.455 18.0624   4
   3   9  16 319.765 67.7114   4
  -3  -9  16 396.599 20.2043   4
   3  -9  16 421.813 24.1369   4
   3  -9  16 439.418 59.1987   1
  -3  -9  16 414.667 29.8941   2
   3  -9  16 511.677 92.3458   8
   3   9  16 517.856 76.3048   9
   3  -9  16 425.573 56.8866   9
   3  -9  16 407.290 44.9546   5
  -3  -9  16 388.204 38.4165   5
  -3  -9  18 1924.20 71.0392   2
   3   9  18 1426.15 134.965   4
   3  -9  18 1966.10 56.6376   4
  -3  -9  18 1289.40 40.5408   4
  -3  -9  18 1695.63 47.6827   4
  -3  -9  18 1950.17 80.1384   5
   3  -9  18 2448.28 106.485   6
   3  -9  20 4333.08 99.6960   4
  -3  -9  20 4604.52 127.224   5
   3 -10 -19 2069.98 95.1811   6
  -3 -10 -19 2156.44 71.8605   5
   3  10 -17 2481.20 196.602   1
   3 -10 -17 3111.90 125.564   6
   3  10 -15 3402.33 212.473   1
   3  10 -15 3153.51 174.045   8
  -3 -10 -15 3708.72 133.194   5
  -3  10 -13 2737.30 167.587   3
   3  10 -13 2182.66 142.006   8
  -3 -10 -13 1849.33 76.1408   7
  -3 -10 -13 2700.47 117.145   5
   3 -10 -13 2197.98 103.528   5
   3  10 -11 9899.37 323.010   8
   3 -10 -11 8894.88 268.051   9
  -3 -10 -11 8712.92 194.762   7
   3 -10 -11 10028.3 248.529   5
   3 -10  -9 14880.3 368.558   9
  -3 -10  -9 16340.6 311.719   7
  -3  10  -7 588.042 29.6214   4
   3  10  -7 825.885 73.6952   1
  -3  10  -7 804.745 104.977   1
   3 -10  -7 501.254 47.4598   9
   3 -10  -7 560.347 55.0879   5
   3  10  -5 9019.67 154.572   4
   3  10  -5 8436.35 163.841   3
   3 -10  -5 7877.55 200.907   9
  -3  10  -5 8253.87 277.727   8
   3 -10  -5 9332.66 245.575   5
  -3  10  -3 36051.3 657.879   2
   3 -10  -3 38786.7 701.915   5
  -3  10  -1 4175.54 132.293   2
   3  10  -1 4054.25 121.263   4
   3 -10  -1 4346.19 158.368   5
  -3  10   1 4466.48 134.580   2
   3  10   1 4306.47 143.756   4
   3 -10   1 4500.75 137.457   7
   3 -10   1 4209.23 158.557   5
   3 -10   3 32688.1 637.925   2
  -3  10   3 43452.8 766.908   1
  -3  10   3 37781.3 649.983   2
   3  10   3 35715.2 688.839   4
   3 -10   3 39710.8 700.579   5
   3 -10   3 41483.0 683.023   7
  -3  10   5 9423.29 219.343   2
  -3  10   5 9534.94 271.000   1
   3 -10   5 7907.97 208.900   2
   3 -10   5 8888.22 238.803   7
   3 -10   5 8395.65 237.388   5
   3 -10   7 567.782 48.1264   2
  -3  10   7 591.162 49.5001   2
   3 -10   7 530.687 41.2336   9
   3 -10   7 614.103 59.9900   7
   3 -10   7 543.682 53.8278   5
  -3  10   9 18212.0 393.135   1
   3 -10   9 17598.2 413.582   1
   3 -10   9 17608.8 404.862   7
   3 -10   9 16815.8 352.042   9
   3  10   9 18695.1 407.696   9
   3 -10  11 10549.1 300.547   1
   3 -10  11 9989.73 257.512   9
   3 -10  11 10203.3 297.785   7
   3 -10  11 9851.76 263.213   5
  -3  10  13 2601.24 101.401   1
   3 -10  13 2274.07 129.620   1
   3 -10  13 2098.58 103.764   2
  -3 -10  13 1959.97 52.3013   2
   3 -10  13 2410.66 136.582   7
   3  10  13 2576.57 147.314   9
   3 -10  13 2136.16 111.358   9
   3 -10  13 2328.27 108.980   5
  -3 -10  15 2890.52 74.7694   2
   3 -10  15 3016.75 130.543   2
   3 -10  15 3065.35 144.408   9
   3 -10  15 3181.44 132.898   5
  -3 -10  15 3065.28 115.035   5
  -3 -10  17 3146.22 87.1435   2
   3 -10  17 3241.67 139.398   2
   3 -10  17 3505.91 162.400   9
   3 -10  17 3568.18 139.013   5
  -3 -10  17 3179.55 116.129   5
  -3 -10  19 2225.87 75.4102   2
   3 -10  19 2291.75 118.352   2
  -3 -10  19 2248.63 92.1866   5
   3 -10  21 330.972 48.2742   2
   3  11 -18 894.794 124.575   1
   3 -11 -18 903.537 67.0703   6
  -3 -11 -18 952.857 58.7333   5
   3  11 -16 627.104 81.2188   8
  -3 -11 -16 706.748 57.8393   5
   3  11 -14 1105.33 103.901   8
   3 -11 -14 1106.20 76.9057   5
  -3 -11 -14 1286.55 83.4846   5
  -3  11 -12 2010.12 138.518   3
   3  11 -12 2237.66 144.419   1
   3  11 -12 1601.31 125.241   8
  -3 -11 -12 1485.33 61.1548   7
   3 -11 -12 1715.73 94.4882   5
  -3 -11 -12 1803.18 102.603   5
   3  11 -10 1873.84 137.303   8
  -3 -11 -10 1777.89 64.9402   7
  -3  11  -8 1670.96 157.129   1
   3  11  -8 1743.88 111.594   1
   3 -11  -8 1204.51 74.5511   9
   3  11  -8 1514.69 82.1039   9
  -3 -11  -8 1208.87 59.3924   7
   3 -11  -8 1668.62 97.3678   5
  -3  11  -6 988.101 38.5378   4
   3 -11  -6 815.711 54.9853   9
   3  11  -6 871.331 55.0880   9
   3 -11  -6 878.964 70.7917   5
  -3  11  -4 1898.21 58.9092   4
   3  11  -4 1917.84 57.4054   4
  -3  11  -4 1656.30 122.794   8
   3 -11  -4 1796.18 72.0448   9
   3  11  -4 1832.10 70.0871   9
   3 -11  -4 1867.33 103.939   5
  -3  11  -2 1593.03 78.1282   2
   3  11  -2 1392.96 49.2366   2
   3 -11  -2 1437.32 55.7568   9
   3 -11  -2 1439.32 92.5501   5
  -3  11   0 1396.61 72.7551   2
   3 -11   0 1387.25 91.0829   5
  -3  11   2 1492.97 75.0553   2
   3  11   2 1365.92 81.5896   4
   3 -11   2 1456.95 79.3053   7
   3 -11   2 1392.54 89.2651   5
  -3  11   4 1666.85 81.9156   2
  -3  11   4 1913.86 120.248   1
   3 -11   4 1673.27 90.8195   7
   3 -11   4 1694.24 97.8280   5
  -3  11   6 845.535 58.9736   2
   3 -11   6 772.793 55.5577   2
   3 -11   6 716.270 44.0761   9
   3  11   6 913.087 61.3542   9
   3 -11   6 750.137 64.8390   7
   3 -11   6 685.245 62.9029   5
  -3  11   8 1523.72 99.5353   1
   3  11   8 1582.55 94.0324   9
   3 -11   8 1399.45 71.6939   9
   3 -11   8 1465.85 95.2204   7
   3 -11   8 1432.49 89.4653   5
   3 -11  10 2167.38 133.129   1
  -3  11  10 2069.57 113.142   1
   3 -11  10 1778.76 91.3973   2
   3 -11  10 1742.87 111.214   7
   3 -11  10 1793.19 90.2391   9
   3  11  10 2189.07 120.370   9
  -3  11  12 1890.11 105.275   1
   3 -11  12 1600.30 90.0016   2
   3 -11  12 1910.12 126.409   1
   3  11  12 1769.91 116.730   9
   3 -11  12 1484.67 88.5049   9
   3 -11  12 1714.10 114.761   7
   3 -11  12 1593.08 94.6641   5
   3 -11  14 930.473 69.1977   2
   3 -11  14 995.547 77.9936   9
   3  11  14 1093.09 101.510   9
   3 -11  14 1070.10 76.1071   5
  -3 -11  14 1004.25 66.7936   5
   3 -11  16 555.593 55.8208   2
  -3 -11  16 543.960 25.6814   2
   3 -11  16 554.134 63.6775   9
   3  11  16 703.273 89.3026   9
   3 -11  16 621.257 60.5139   5
  -3 -11  16 560.567 49.6884   5
   3 -11  18 915.899 72.5470   2
  -3 -11  18 822.572 36.0712   2
  -3 -11  18 882.887 59.8212   5
   3 -11  20 1710.61 100.752   2
   3 -11  22 41.1573 24.7687   2
   3  12 -17 107.996 68.9365   1
  -3 -12 -17 264.700 37.8573   5
   3 -12 -17 184.078 38.0832   6
   3 -12 -15 14.5093 22.3632   5
   3  12 -15 27.7858 50.9883   1
   3  12 -15-8.65190 29.5172   8
  -3 -12 -15 18.7393 22.0092   5
  -3  12 -13 1672.10 133.774   3
   3  12 -13 1338.28 117.341   8
  -3 -12 -13 1575.53 99.7060   5
   3 -12 -13 1311.36 87.9900   5
  -3  12 -11 271.828 54.1093   3
   3  12 -11 225.277 52.4341   1
  -3 -12 -11 184.475 19.9295   7
   3  12 -11 180.786 50.3903   8
   3 -12 -11 184.518 36.6051   5
  -3 -12 -11 243.196 43.5195   5
  -3  12  -9 936.112 83.8620   3
   3  12  -9 817.895 94.9817   8
  -3 -12  -9 716.123 40.7775   7
  -3  12  -7 1777.70 48.5792   4
   3  12  -7 2074.87 126.196   1
   3  12  -7 2065.51 88.0600   9
   3 -12  -7 1807.17 107.527   5
  -3  12  -5 476.185 26.7051   4
   3  12  -5 420.684 20.0366   4
   3  12  -5 459.966 35.6156   9
   3 -12  -5 422.667 33.9843   9
   3 -12  -5 446.183 54.3542   5
   3  12  -3 1662.59 60.0101   4
  -3  12  -3 1588.36 57.0732   4
   3  12  -3 1609.43 55.1791   2
  -3  12  -3 1646.75 83.8718   2
   3  12  -3 1733.35 58.7423   9
   3 -12  -3 1477.99 55.3971   9
   3 -12  -3 1624.12 101.574   5
   3  12  -1 501.899 30.6430   2
  -3  12  -1 522.864 45.7790   2
  -3  12  -1 658.020 89.0702   1
   3 -12  -1 512.566 24.1266   9
   3 -12  -1 529.639 60.1649   5
   3 -12  -1 603.136 45.4606   7
  -3  12   1 837.564 57.3755   2
   3 -12   1 691.360 66.7984   5
  -3  12   3 1433.23 76.6791   2
   3 -12   3 1398.24 94.7307   5
  -3  12   5 161.565 27.9115   2
   3  12   5 168.978 26.8953   9
   3 -12   5 189.636 35.0918   7
   3 -12   5 159.336 20.4566   9
   3 -12   5 173.653 36.4551   5
   3  12   7 1588.99 117.877   4
  -3  12   7 2327.27 135.061   1
  -3  12   7 2139.13 99.9787   2
   3 -12   7 1994.25 80.4802   9
   3 -12   7 1967.36 111.600   7
   3  12   7 2179.33 102.139   9
   3 -12   7 1868.57 108.004   5
   3  12   9 664.991 83.4562   4
   3 -12   9 734.356 56.8322   2
  -3  12   9 978.347 84.2876   1
  -3  12   9 844.676 65.3771   2
   3 -12   9 886.200 85.2849   1
   3  12   9 956.807 75.2119   9
   3 -12   9 745.895 54.1681   9
   3 -12   9 767.743 74.2613   7
   3  12  11 191.777 51.5668   4
  -3  12  11 106.142 32.7128   1
   3 -12  11 136.905 28.3408   2
   3 -12  11 145.918 41.2011   1
   3  12  11 133.557 35.1164   9
   3 -12  11 124.437 27.5516   9
   3 -12  11 167.090 40.4356   7
   3 -12  11 173.004 36.7980   5
   3  12  13 1103.76 119.093   4
   3 -12  13 1291.11 81.0823   2
  -3  12  13 1740.36 101.098   1
   3 -12  13 1435.51 90.0559   9
   3  12  13 1587.19 114.756   9
   3 -12  13 1504.50 93.8527   5
  -3 -12  13 1391.79 82.3781   5
   3  12  15 49.4980 38.3734   4
   3 -12  15 7.28002 19.0246   2
   3  12  15 2.76019 31.4755   9
   3 -12  15-1.80971 24.8742   9
   3 -12  15 14.8308 21.8913   5
  -3 -12  15 22.6638 20.5827   5
   3 -12  17 167.194 35.2864   2
   3 -12  17 156.090 36.8043   5
  -3 -12  17 214.722 33.3374   5
   3 -12  19 773.300 66.7720   2
   3 -12  21 34.0869 23.6421   2
   3  13 -18 176.016 82.5045   1
   3 -13 -18 167.498 38.3382   6
   3 -13 -16 1613.91 101.372   5
  -3 -13 -16 1755.13 102.184   5
   3  13 -14 1629.18 132.698   8
  -3  13 -14 1465.10 106.304   8
  -3 -13 -14 1741.86 107.559   5
   3 -13 -14 1604.27 102.007   5
  -3  13 -12 2541.82 156.035   3
   3  13 -12 2828.82 181.139   1
   3  13 -12 1919.00 146.117   8
  -3  13 -12 1974.33 123.267   8
   3 -13 -12 2168.28 120.831   5
  -3 -13 -12 2339.23 129.298   5
  -3  13 -10 1903.54 124.179   3
  -3 -13 -10 1456.02 53.0945   7
   3  13 -10 1513.74 129.540   8
   3 -13 -10 1843.77 112.881   5
  -3 -13 -10 1809.55 114.459   5
   3  13  -8 3332.62 206.871   8
  -3 -13  -8 2853.34 94.5649   7
   3  13  -6 7464.62 160.835   3
  -3  13  -6 7213.45 138.867   4
   3 -13  -6 6968.83 238.678   5
   3  13  -4 714.182 33.7966   4
  -3  13  -4 700.408 34.5622   4
   3 -13  -4 729.475 73.3504   5
  -3  13  -2 2531.87 106.113   2
   3  13  -2 2154.80 71.6935   2
   3  13  -2 2288.11 83.8296   4
   3 -13  -2 2463.84 133.487   5
  -3  13   0 8712.36 224.215   2
   3  13   0 7948.24 177.354   2
   3  13   0 8970.10 220.811   4
   3 -13   0 9074.33 226.456   7
   3 -13   0 8177.66 264.753   5
  -3  13   2 2135.55 97.3279   2
   3 -13   2 1971.86 118.957   5
   3 -13   2 2005.14 102.197   7
  -3  13   4 768.223 57.9391   2
   3 -13   4 705.150 69.3025   1
   3 -13   4 748.146 32.6459   9
   3  13   4 801.250 42.9651   9
   3 -13   4 678.611 70.0714   5
   3  13   6 5509.95 230.958   4
   3 -13   6 7253.28 236.148   1
  -3  13   6 8091.46 280.798   1
  -3  13   6 6812.29 197.695   2
   3  13   6 7781.84 187.820   9
   3 -13   6 6637.23 155.835   9
   3 -13   6 6541.54 227.682   5
   3  13   8 2494.26 159.006   4
  -3  13   8 3913.41 183.214   1
  -3  13   8 3471.69 135.581   2
   3 -13   8 3414.09 161.303   1
   3 -13   8 3163.79 121.403   2
   3  13   8 3772.55 138.659   9
   3 -13   8 3263.82 152.960   7
   3 -13   8 3147.48 108.175   9
   3 -13   8 3133.90 150.119   5
   3  13  10 1237.15 119.581   4
  -3  13  10 2028.74 126.889   1
   3 -13  10 1822.94 117.025   1
  -3  13  10 1798.53 100.722   2
   3 -13  10 1528.99 85.7640   2
   3 -13  10 1722.31 114.720   7
   3  13  10 1820.27 106.033   9
   3 -13  10 1536.57 81.8785   9
   3 -13  10 1577.08 101.862   5
   3  13  12 1744.74 147.590   4
   3 -13  12 2186.75 105.591   2
  -3  13  12 3017.20 153.565   1
   3  13  12 2927.06 148.623   9
   3 -13  12 2255.31 109.180   9
   3 -13  12 2345.75 126.534   5
   3 -13  14 1301.23 81.5240   2
   3  13  14 1159.07 123.593   4
  -3 -13  14 1237.14 81.5500   5
   3 -13  16 1447.59 88.2859   2
  -3 -13  16 1417.70 84.9008   5
   3 -13  18 233.903 38.8586   2
   3  13  18 343.233 53.9271   1
   3 -13  18 201.134 41.0648   5
  -3 -13  18 262.444 38.5133   5
   3 -13  20 72.2938 27.2723   2
   3  14 -17 2010.81 185.072   1
  -3 -14 -17 1201.38 85.5176   5
  -3  14 -15 483.168 65.2083   8
   3 -14 -15 529.125 62.8086   5
  -3 -14 -15 599.548 65.1171   5
  -3  14 -13 1680.24 132.510   3
   3  14 -13 1553.66 133.263   8
  -3  14 -13 1473.11 109.184   8
   3 -14 -13 1598.87 105.790   5
  -3 -14 -13 1817.21 115.801   5
  -3  14 -11 1431.43 113.589   3
  -3  14 -11 1192.13 99.7960   8
   3  14 -11 1204.37 121.242   8
   3 -14 -11 1250.24 95.1319   5
  -3 -14 -11 1428.30 105.655   5
  -3  14  -9 559.112 67.4226   3
   3  14  -9 678.639 86.3931   1
  -3  14  -9 415.120 104.908   1
   3  14  -9 495.348 83.6503   8
   3 -14  -9 535.842 66.3276   5
  -3 -14  -9 607.158 69.4589   5
  -3 -14  -9 423.424 29.0867   7
   3  14  -7 3088.69 86.3447   3
   3 -14  -7 2927.52 151.682   5
  -3  14  -5 1939.90 57.0266   4
   3  14  -5 1808.62 43.6290   4
   3  14  -5 1771.00 164.775   8
   3 -14  -5 1899.66 121.595   5
   3  14  -3 299.105 63.9321   1
   3  14  -3 251.891 24.1343   2
  -3  14  -3 391.123 84.3693   1
   3  14  -3 243.395 23.3754   4
  -3  14  -3 300.183 24.8286   4
   3 -14  -3 256.655 48.1699   5
   3  14  -1 2795.32 87.8224   2
  -3  14  -1 2747.04 116.322   2
   3  14  -1 2948.73 105.980   4
   3 -14  -1 2812.97 110.113   7
   3 -14  -1 2894.48 151.412   5
  -3  14   1 3301.85 126.298   2
   3  14   1 3093.55 98.4148   2
   3  14   1 3234.74 129.403   4
   3 -14   1 3244.08 160.636   5
   3 -14   1 3318.48 130.949   7
   3 -14   3 257.336 44.7901   1
  -3  14   3 247.894 36.8644   2
  -3  14   3 362.710 67.8410   1
   3  14   3 142.420 42.1695   1
   3 -14   3 277.925 42.4032   7
   3 -14   3 242.805 46.8465   5
  -3  14   5 1503.70 86.1281   2
   3 -14   5 1624.07 109.712   5
   3 -14   5 1545.20 99.7777   7
  -3  14   7 3557.03 187.736   1
   3 -14   7 3367.87 157.778   1
   3 -14   7 3004.94 122.054   2
  -3  14   7 3197.34 132.763   2
   3  14   7 3371.52 116.067   9
   3 -14   7 2944.49 150.098   5
  -3  14   9 607.453 77.6362   1
   3 -14   9 466.333 47.7868   2
  -3  14   9 513.534 54.8040   2
   3  14   9 363.767 65.5766   4
   3 -14  11 1057.60 72.1837   2
   3  14  11 977.612 107.954   4
  -3 -14  11 1089.23 78.7132   5
   3 -14  11 1128.22 91.1532   5
   3 -14  13 1659.69 91.0374   2
   3  14  13 1370.39 133.956   4
   3 -14  13 1742.74 110.817   5
  -3 -14  13 1507.60 94.6540   5
   3 -14  15 485.185 51.1330   2
  -3  14  15 683.033 71.1371   1
   3  14  15 681.431 74.9017   1
   3 -14  15 543.568 62.4965   5
   3 -14  17 1231.40 80.4488   2
   3  14  17 1482.18 108.669   1
  -3  15 -16 2006.72 132.137   8
   3 -15 -16 2173.43 127.183   5
  -3 -15 -16 2228.35 125.334   5
   3 -15 -14 202.247 46.3146   5
   3  15 -14 327.961 84.2735   1
  -3  15 -14 266.056 62.3825   3
  -3  15 -14 168.510 44.4319   8
  -3 -15 -14 290.946 51.6223   5
  -3  15 -12 753.461 87.5586   3
  -3  15 -12 609.523 75.4159   8
   3  15 -12 520.500 84.1881   8
   3 -15 -12 708.912 76.0383   5
  -3 -15 -12 730.135 78.4458   5
  -3  15 -10 4321.40 192.705   3
  -3  15 -10 3667.39 185.274   8
   3  15 -10 3342.81 209.511   8
  -3 -15 -10 4514.50 197.391   5
   3 -15 -10 4401.76 194.336   5
   3  15  -8 1626.25 151.733   8
  -3  15  -8 1482.45 117.771   8
  -3 -15  -8 1170.60 53.4040   7
   3  15  -6 1473.38 118.624   1
   3  15  -6 1208.85 140.207   8
   3 -15  -6 1295.61 104.936   5
  -3  15  -4 3775.32 94.6879   4
   3  15  -4 3927.44 89.6458   4
   3 -15  -4 3888.94 183.554   5
   3  15  -2 3237.40 98.9921   2
   3  15  -2 3550.41 107.532   4
  -3  15  -2 3235.83 94.8002   4
   3 -15  -2 3314.15 167.736   5
   3  15   0 2253.66 82.9210   2
   3  15   0 2620.05 108.584   4
   3 -15   0 2686.20 151.159   5
   3 -15   0 2619.46 113.772   7
  -3  15   2 3613.81 137.813   2
   3  15   2 3421.90 110.591   2
   3 -15   2 3481.14 174.142   5
   3 -15   2 3595.61 145.447   7
  -3  15   4 3323.59 134.092   2
   3  15   4 3350.66 155.055   4
   3 -15   4 3460.67 170.972   5
   3 -15   4 3408.48 150.552   7
  -3  15   6 1365.99 86.1621   2
   3  15   6 1134.00 94.3514   1
   3  15   6 1301.79 104.923   4
   3 -15   6 1444.30 101.189   7
   3 -15   6 1352.40 104.515   5
  -3  15   8 2475.82 161.423   1
   3 -15   8 1849.67 120.966   7
   3  15  10 4489.62 193.613   1
   3 -15  10 3591.72 137.718   2
   3  15  12 674.792 95.5461   4
   3  15  12 927.472 90.8704   1
   3 -15  12 775.309 62.2097   2
  -3  15  14 397.445 61.6393   1
   3  15  14 338.930 59.2843   1
   3 -15  14 248.500 38.2927   2
   3 -15  16 1800.83 95.9750   2
   3 -15  18 596.981 56.0074   2
  -3  16 -13 1868.51 129.714   8
  -3  16 -13 2662.79 163.572   3
  -3  16 -11 1361.28 111.801   8
   3  16 -11 1345.18 132.451   8
  -3  16 -11 1581.55 119.655   3
  -3  16  -9 2645.85 145.382   3
  -3  16  -9 2220.95 146.994   8
   3  16  -9 2231.14 178.840   8
  -3  16  -7 2444.36 165.862   8
   3  16  -7 2608.41 206.066   8
   3  16  -7 3487.27 194.318   1
   3  16  -7 3058.59 88.3977   3
  -3  16  -7 3622.10 263.972   1
  -3  16  -5 1817.09 54.2297   4
  -3  16  -5 2245.76 72.7606   4
  -3  16  -5 2121.56 166.204   8
   3  16  -5 2111.43 188.527   8
   3  16  -3 4590.74 114.942   4
  -3  16  -3 4887.50 117.968   4
   3  16  -3 4837.44 128.678   2
   3  16  -3 4461.47 279.585   8
  -3  16  -1 2708.93 120.427   2
   3  16  -1 2439.93 89.0460   2
   3  16  -1 2733.74 103.333   4
   3 -16  -1 2764.93 113.058   7
   3  16   1 2726.19 97.4829   2
   3 -16   1 2978.79 132.399   7
   3  16   3 4855.51 141.227   2
   3  16   3 4831.69 182.845   4
   3 -16   3 4815.46 182.093   7
  -3  16   5 2253.64 113.784   2
   3  16   5 2252.10 133.985   4
   3 -16   5 2504.93 134.750   7
   3  16   7 2640.10 160.138   4
   3 -16   7 3081.74 156.477   7
  -3  16   9 3642.23 209.946   1
   3  16   9 3279.50 170.074   1
  -3  16  11 1717.61 144.271   1
   3  16  11 1796.02 128.923   1
   3  16  13 3000.43 166.166   1
  -3  16  13 2810.75 169.774   1
   3 -16  15 862.174 65.4497   2
   3  16  15 1206.56 111.406   1
  -3  17 -12 1259.69 109.312   8
  -3  17 -12 1410.64 117.516   3
  -3  17 -10 1850.82 126.875   3
  -3  17 -10 1679.83 130.853   8
  -3  17  -8 1397.82 121.992   8
   3  17  -8 1438.40 151.058   8
  -3 -17  -8 776.374 31.2288   7
  -3  17  -8 2498.31 237.877   1
   3  17  -8 1835.27 152.325   1
   3  17  -6 1301.97 62.0761   3
  -3  17  -6 1108.13 117.587   8
   3  17  -6 1050.81 141.128   8
   3  17  -6 1519.21 129.355   1
  -3  17  -6 1618.81 181.246   1
   3  17  -4 2404.39 58.6648   4
  -3  17  -4 2478.25 69.7413   4
  -3  17  -4 2067.45 83.5317   4
   3  17  -4 1892.27 186.279   8
  -3  17  -4 1730.93 158.042   8
  -3  17  -2 1985.97 104.938   2
   3  17  -2 1821.71 77.1080   2
   3  17  -2 1854.41 73.6744   4
  -3  17  -2 1976.48 70.6363   4
   3  17   0 814.612 50.4072   2
  -3  17   0 912.554 70.5689   2
   3 -17   0 910.699 70.8225   7
   3  17   2 1865.68 82.6742   2
  -3  17   2 2007.12 106.084   2
   3 -17   2 2023.07 113.362   7
   3  17   4 1979.53 89.8443   2
   3  17   4 2011.31 119.965   4
   3 -17   4 1960.79 120.990   7
   3  17   6 1144.85 101.112   4
   3 -17   6 1384.01 104.257   7
   3  17   8 1454.84 125.007   4
  -3  17   8 2450.41 186.295   1
   3  17  10 1720.96 145.242   4
  -3  17  10 2537.85 189.583   1
   3  17  12 1933.68 148.811   1
  -3  17  12 1865.05 155.638   1
  -3  17  14 2170.93 153.025   1
   3 -17  14 1604.10 89.8152   2
   3  17  16 455.027 85.5474   1
  -3  18 -11 1278.20 114.140   8
  -3  18 -11 1437.96 116.561   3
  -3  18  -9 3473.87 170.860   3
  -3  18  -9 2922.28 177.268   8
   3  18  -7 186.523 20.6541   3
  -3 -18  -7 166.733 19.1289   7
  -3 -18  -7 141.746 17.8427   7
  -3 -18  -5 1198.74 63.1480   7
  -3  18  -5 1086.09 126.611   8
   3  18  -5 1009.44 141.765   8
   3  18  -5 1431.88 135.644   1
  -3  18  -3 5983.35 135.605   4
   3  18  -3 5595.49 129.810   4
  -3  18  -3 6128.37 171.241   4
  -3 -18  -3 7136.93 186.267   7
   3  18  -3 5781.25 332.501   8
  -3  18  -3 5614.39 298.238   8
   3  18  -3 7585.17 298.944   1
  -3  18  -1 401.134 50.0484   2
   3  18  -1 332.069 34.3143   2
   3  18  -1 464.910 78.1473   1
   3  18  -1 356.339 36.5214   4
  -3  18  -1 382.040 32.7422   4
   3  18   1 373.522 36.9923   2
   3 -18   1 343.903 48.6899   7
   3  18   3 6497.73 218.206   4
   3  18   3 6220.18 177.647   2
  -3 -18   3 6514.31 207.228   7
   3 -18   3 6144.71 222.963   7
   3  18   5 1278.06 100.463   4
   3  18   5 1251.72 74.9205   2
  -3 -18   5 1247.17 87.2495   7
   3 -18   5 1308.75 103.552   7
   3  18   7 143.603 44.3015   4
   3  18   7 271.070 76.4098   1
  -3  18   7 245.303 76.3841   1
   3  18   9 3268.99 191.223   4
  -3  18   9 5058.17 286.462   1
  -3  18  11 1906.44 168.514   1
  -3  18  13 500.611 87.0511   1
  -3  19  -8 385.144 72.2498   8
   3  19  -6 222.374 28.6861   3
  -3  19  -6 163.886 57.0370   8
  -3 -19  -6 187.317 23.3264   7
  -3  19  -4 1079.51 37.3304   4
  -3  19  -4 1113.41 44.0569   4
  -3  19  -4 1094.53 133.924   8
  -3 -19  -4 1327.94 71.0105   7
  -3  19  -2 840.002 62.8373   4
  -3  19  -2 785.149 43.0828   4
   3  19  -2 734.976 42.4092   4
   3  19  -2 722.103 50.3260   2
  -3  19  -2 636.535 106.326   8
  -3 -19  -2 912.941 64.2623   7
   3  19   0 77.4523 22.0317   2
  -3 -19   0 111.064 31.5641   7
   3 -19   0 62.5390 28.4888   7
  -3  19   2 911.855 93.9947   4
   3  19   2 881.809 70.6095   4
   3  19   2 845.952 59.2664   2
  -3 -19   2 889.466 70.6887   7
   3 -19   2 809.839 75.9669   7
   3  19   4 1224.59 73.6770   2
   3  19   4 1280.02 95.7811   4
  -3  19   4 1284.05 122.648   4
   3 -19   4 1187.40 98.2254   7
  -3  19   6 146.355 58.2227   4
   3  19   6 120.842 43.5424   4
  -3  19   6 281.951 91.3158   1
  -3  19   8 462.226 90.8109   4
   3  19   8 463.064 72.5372   4
  -3  19  10 1616.50 167.186   1
  -3  19  12 717.516 109.567   1
  -3  20  -5 238.917 69.6315   8
  -3  20  -3 780.408 117.752   8
   3  20  -1 721.528 46.1299   4
  -3  20  -1 759.450 44.9302   4
   3  20  -1 764.578 53.1151   2
  -3 -20  -1 809.588 64.7742   7
  -3  20  -1 585.250 105.302   8
  -3  20   1 699.809 74.0084   4
   3  20   1 600.327 53.9921   4
   3  20   1 643.818 50.9753   2
  -3 -20   1 771.595 66.8068   7
   3 -20   1 576.545 62.8946   7
   3  20   3 1005.39 66.8580   2
  -3  20   3 1040.62 101.577   4
   3  20   3 1109.11 82.4291   4
   3 -20   3 994.631 89.6172   7
   3  20   5 481.457 65.2756   4
  -3  20   5 422.728 77.2892   4
  -3  20   7 894.082 112.992   4
   3  20   7 980.858 95.9654   4
  -3  20   9 1228.56 154.660   1
  -3  20  11 185.982 72.2065   1
  -3  21   2 39.4876 31.1479   4
   3  21   2 19.4915 20.9248   4
  -3  21   4 41.5165 37.3369   4
   3  21   4 71.4434 32.7392   4
  -3  21   6 211.661 65.7326   4
   3  21   6 161.735 44.1777   4
   4   0 -18 3688.47 200.645   9
   4   0 -16 7872.72 294.134   9
  -4   0 -14 1407.43 46.7846   5
  -4   0 -10 21248.5 413.493   7
  -4   0 -10 20757.1 372.559   5
  -4   0  -8 8538.60 239.268   4
  -4   0  -8 7126.99 180.384   7
  -4   0  -6 6608.70 184.311   4
  -4   0  -6 6426.80 154.042   6
  -4   0  -6 6043.90 156.693   7
  -4   0  -4 13207.5 300.233   3
  -4   0  -4 12871.6 262.615   4
  -4   0  -4 11544.5 248.375   6
  -4   0  -4 11921.4 250.765   7
  -4   0  -2 14088.2 301.286   3
  -4   0  -2 14207.1 275.143   4
   4   0  -2 14625.6 251.770   2
   4   0  -2 15039.7 251.117   8
  -4   0  -2 13439.4 286.539   6
  -4   0   0 12663.2 150.741   4
   4   0   0 12548.7 153.561   2
  -4   0   2 12847.4 236.805   4
  -4   0   2 13053.3 232.021   2
  -4   0   2 12078.8 254.610   8
  -4   0   2 11862.8 270.426   6
  -4   0   4 13286.1 235.431   2
  -4   0   4 13985.1 263.559   8
  -4   0   4 13852.8 284.579   6
  -4   0   6 5220.54 140.176   8
  -4   0   6 5391.44 148.887   6
  -4   0   8 7665.82 183.503   8
  -4   0   8 7198.35 177.120   6
   4   0  10 23849.8 481.151   4
  -4   0  10 22933.8 451.641   8
   4   0  12 2883.34 130.237   4
  -4   0  12 2797.26 114.011   8
  -4   0  12 2699.92 85.8589   5
   4   0  14 1565.15 97.1560   4
   4   0  14 1424.98 111.163   3
  -4   0  14 1611.39 90.0801   8
   4   0  14 1788.45 109.369   9
   4   0  14 1542.71 72.3621   8
  -4   0  14 1362.60 52.2250   5
   4   0  14 1938.41 115.122   7
   4   0  16 7894.26 287.788   3
   4   0  16 9175.55 268.766   1
  -4   0  16 8394.95 241.885   8
   4   0  16 9489.11 290.361   9
  -4   0  16 7565.32 143.321   5
   4   0  18 3715.66 166.738   4
   4   0  18 3764.51 165.676   1
  -4   0  18 3499.16 158.003   8
  -4   0  18 3942.22 150.487   7
   4   0  20 554.812 67.1528   4
  -4   0  20 562.888 58.7122   7
   4   0  20 623.065 67.4582   1
   4   0  20 475.539 72.1536   3
   4   0  22 2477.77 139.634   4
   4   0  22 2053.34 113.414   1
  -4   0  24 1004.72 91.5661   3
   4   1 -19 3467.73 195.984   9
   4   1 -17 99.5823 39.8612   9
   4  -1 -17 91.0195 40.0156   9
  -4  -1 -15 1285.71 82.0582   7
   4   1 -15 1309.96 108.371   9
  -4   1 -15 1243.72 84.0771   7
  -4   1 -15 1249.61 44.7030   5
  -4  -1 -15 1284.82 38.9719   5
  -4   1 -13 7541.80 155.181   5
  -4  -1 -13 7930.86 152.839   5
  -4   1 -11 2797.74 148.033   4
  -4  -1 -11 2100.50 91.4232   7
  -4   1  -9 4565.38 169.902   4
  -4  -1  -9 4710.34 191.382   4
   4   1  -9 5475.62 116.596   1
  -4  -1  -9 4008.38 125.543   7
  -4  -1  -9 4282.77 115.624   6
  -4   1  -9 3512.43 102.100   5
  -4   1  -7 16704.5 383.244   3
  -4   1  -7 15713.5 321.929   4
  -4  -1  -7 15819.1 348.715   4
  -4   1  -7 13484.9 262.680   5
  -4  -1  -7 12982.2 282.214   7
  -4  -1  -7 12960.0 276.002   6
  -4   1  -5 5069.84 143.625   4
  -4  -1  -5 5151.83 154.915   4
  -4   1  -5 5244.88 178.135   3
   4   1  -5 5395.25 133.230   8
  -4  -1  -5 4820.94 134.953   7
  -4   1  -3 7256.41 199.013   3
  -4   1  -3 8273.39 176.549   4
  -4  -1  -3 6338.85 174.924   4
   4   1  -3 7906.91 139.910   2
  -4  -1  -3 7458.07 202.466   3
   4  -1  -3 7986.86 151.756   2
   4   1  -3 7039.05 167.932   8
   4  -1  -3 7720.05 198.901   6
  -4   1  -3 6845.12 166.865   6
  -4  -1  -1 16919.4 309.959   4
   4   1  -1 16283.3 297.334   4
  -4  -1  -1 15549.5 321.213   3
  -4   1  -1 16828.1 301.394   4
   4  -1  -1 16673.8 293.630   2
   4   1  -1 17485.4 290.054   2
   4   1  -1 15139.0 320.301   8
   4  -1  -1 18042.1 350.448   6
   4  -1   1 15377.1 301.454   2
  -4   1   1 17166.3 294.380   2
  -4   1   1 16598.9 291.107   4
   4  -1   1 15150.6 292.940   4
  -4  -1   1 15548.9 290.659   4
   4  -1   1 18139.7 348.308   6
   4  -1   3 6935.53 168.570   4
   4   1   3 6993.84 199.319   3
  -4   1   3 7682.14 162.401   4
  -4  -1   3 7825.51 162.178   4
  -4   1   3 7835.75 158.481   2
  -4  -1   3 7983.03 151.760   2
  -4   1   3 8260.42 156.993   8
  -4  -1   3 7943.69 207.494   8
  -4   1   3 7704.86 181.684   6
   4  -1   3 8942.22 214.181   6
   4   1   5 5378.85 178.957   3
   4   1   5 4206.74 143.159   4
   4  -1   5 5054.88 140.885   4
  -4  -1   5 5307.11 125.940   4
  -4  -1   5 5426.07 113.105   2
  -4   1   5 5692.00 124.538   2
  -4  -1   5 6394.14 168.882   8
  -4   1   5 5767.39 129.168   8
  -4   1   5 5325.62 139.792   6
   4  -1   5 6386.64 179.616   6
   4  -1   7 13125.6 281.849   4
  -4   1   7 13011.8 255.523   8
  -4  -1   7 14267.0 293.336   8
   4  -1   7 14758.0 310.504   7
  -4  -1   7 12980.5 292.139   6
   4  -1   9 4365.36 145.069   4
   4   1   9 3948.17 150.819   4
  -4   1   9 4361.16 126.756   8
  -4  -1   9 4515.35 148.031   8
  -4  -1   9 4651.10 138.947   6
  -4   1   9 4173.47 116.946   5
   4   1  11 2079.72 110.173   4
   4  -1  11 2406.22 110.605   4
  -4   1  11 2391.36 95.6402   8
  -4  -1  11 2520.13 111.345   8
   4  -1  11 2317.34 82.6524   8
   4   1  11 2637.68 121.935   7
   4  -1  11 2737.25 125.506   7
   4   1  13 7020.19 227.585   4
   4  -1  13 7765.88 225.621   4
   4  -1  13 7456.36 256.472   3
   4  -1  13 7204.10 183.136   8
  -4   1  13 7300.39 200.564   8
  -4  -1  13 7725.85 224.318   8
   4  -1  13 9375.28 264.008   7
   4   1  13 9005.41 252.701   7
  -4   1  13 7201.69 159.186   5
   4  -1  15 1325.68 106.080   3
   4   1  15 1254.03 92.1144   4
   4  -1  15 1572.34 106.346   1
   4   1  15 1326.25 111.620   3
  -4   1  15 1331.23 81.8376   8
  -4  -1  15 1468.63 94.6459   8
   4   1  15 1541.60 107.655   9
   4  -1  15 1589.34 106.186   9
  -4  -1  15 1188.12 48.0948   5
  -4   1  15 1206.90 44.2746   5
   4  -1  15 1786.43 113.441   7
   4  -1  17 189.334 38.1618   4
   4  -1  17 168.931 38.0818   1
   4   1  17 180.489 47.4998   3
   4  -1  17 190.319 46.8282   3
  -4  -1  17 185.980 34.3805   7
  -4   1  17 160.838 34.4484   8
  -4  -1  17 188.589 40.8588   8
  -4   1  17 193.702 32.6674   7
   4   1  17 175.378 46.4356   9
   4  -1  17 147.105 42.1333   9
  -4  -1  17 87.4907 7.88794   5
   4   1  17 206.365 45.6232   7
   4  -1  19 2923.06 173.085   3
   4  -1  19 3416.22 155.192   4
   4   1  19 3124.77 158.328   4
   4   1  19 2770.22 175.878   3
   4  -1  19 3371.44 158.377   1
   4   1  19 3200.07 154.747   1
   4  -1  19 2921.78 132.481   8
  -4  -1  19 3364.08 143.659   7
  -4   1  19 3441.67 140.744   7
   4  -1  19 3839.88 192.976   7
   4   1  19 4082.10 194.176   7
   4   1  21 1098.55 97.1070   4
   4  -1  21 1289.67 95.1714   4
  -4   1  21 1257.54 87.8900   7
   4   1  21 1235.80 93.7970   1
   4   1  21 1021.24 107.378   3
   4  -1  21 1104.53 83.3646   1
   4   1  23 220.994 48.8383   4
   4  -1  23 203.889 44.4813   4
  -4  -1  23 219.477 51.3633   4
  -4  -1  23 135.374 37.6899   3
  -4  -1  25 308.952 54.3916   3
   4   2 -18 173.224 48.3714   9
   4  -2 -18 155.673 47.4863   9
   4  -2 -16 1231.49 110.259   9
   4   2 -16 1347.09 112.889   9
  -4   2 -14 155.744 32.7972   7
  -4  -2 -14 142.205 14.9071   5
  -4   2 -14 140.441 17.2277   5
   4   2 -12 44.4427 19.1490   1
  -4   2 -10 3047.65 139.183   4
   4   2 -10 2846.27 87.8130   1
  -4  -2 -10 2518.55 96.6647   7
  -4  -2 -10 2521.61 89.1307   6
  -4   2 -10 2378.49 76.3233   5
  -4   2  -8 768.491 59.1929   4
  -4  -2  -8 768.884 73.7423   4
  -4   2  -8 721.235 74.2633   3
   4   2  -8 847.089 39.4838   1
   4   2  -8 745.192 52.3183   8
  -4   2  -8 682.391 38.2317   5
  -4  -2  -8 609.385 48.2141   6
  -4  -2  -8 608.816 44.8573   7
  -4   2  -6 1853.30 78.1290   4
  -4  -2  -6 1854.83 98.2600   4
  -4   2  -6 1812.44 104.210   3
   4   2  -6 1678.63 77.5782   8
  -4  -2  -6 1442.47 67.1514   7
   4  -2  -6 1677.71 79.1011   6
  -4   2  -6 1495.35 59.3549   5
  -4  -2  -4 636.306 49.4769   4
  -4   2  -4 688.260 56.1155   3
  -4   2  -4 645.366 41.3928   4
   4   2  -4 597.538 46.3879   8
   4  -2  -4 607.001 44.9035   6
  -4   2  -4 587.597 37.4388   5
   4   2  -2 847.802 40.6547   4
  -4   2  -2 858.052 43.3252   4
  -4  -2  -2 777.976 48.7097   4
  -4  -2  -2 931.327 58.4320   3
   4   2  -2 890.514 31.9336   2
   4  -2  -2 800.235 39.2073   2
   4   2  -2 759.588 56.9336   8
   4  -2  -2 860.928 53.2181   6
   4  -2   0 2695.31 84.1640   2
  -4  -2   0 2856.47 90.0200   3
  -4   2   0 2785.90 87.2041   2
  -4  -2   0 2613.92 84.7091   4
  -4   2   0 2695.46 79.0117   4
   4   2   0 2768.08 86.5027   4
   4  -2   0 2989.85 104.342   6
   4  -2   2 676.992 38.4129   4
   4   2   2 647.940 49.4178   3
  -4   2   2 556.299 33.7508   4
  -4  -2   2 781.375 39.3862   4
  -4   2   2 797.214 39.7579   2
  -4   2   2 755.412 26.3487   8
   4  -2   2 787.403 51.5045   6
  -4  -2   4 528.086 31.5216   4
   4  -2   4 493.013 35.1371   4
  -4   2   4 526.066 32.1428   2
  -4  -2   4 594.790 25.6301   2
   4   2   4 532.497 50.3290   3
   4  -2   4 539.085 25.9180   8
  -4  -2   4 528.680 54.0095   8
   4  -2   4 549.241 44.4566   6
  -4   2   4 502.269 36.1868   5
   4   2   6 1188.33 72.4981   4
   4  -2   6 1361.16 65.0185   4
  -4  -2   6 1557.39 58.4025   4
   4   2   6 1613.14 96.8421   3
  -4  -2   6 1619.59 47.1302   2
  -4   2   6 1623.91 60.6030   2
  -4  -2   6 1764.65 94.6994   8
  -4   2   6 1524.39 65.1594   5
   4  -2   6 1945.13 86.1459   6
   4  -2   6 1783.60 86.7203   7
   4  -2   8 532.022 43.3249   4
   4  -2   8 458.023 31.5800   8
  -4  -2   8 469.012 50.4128   8
  -4   2   8 446.789 32.7991   8
   4  -2   8 532.376 47.7212   6
  -4   2   8 411.968 32.7499   5
   4  -2   8 561.590 51.6218   7
   4  -2  10 2573.83 104.682   4
   4  -2  10 2441.33 86.6086   8
  -4   2  10 2377.09 90.0247   8
   4   2  12 95.2584 27.8493   4
   4  -2  12 126.029 26.4864   4
   4  -2  12 65.6340 29.0315   1
  -4   2  12 27.6289 14.6461   8
   4  -2  12 72.5400 17.9141   8
  -4  -2  12 55.0460 22.2265   8
   4  -2  12 107.232 31.7985   7
  -4   2  12 55.0841 13.3350   5
  -4  -2  12 69.1747 18.9701   6
   4   2  14 136.282 34.5197   4
   4  -2  14 123.403 37.0616   3
  -4   2  14 131.010 26.0672   8
   4   2  14 180.152 39.5921   9
  -4  -2  14 132.714 33.5996   8
   4  -2  14 166.961 35.4043   9
  -4  -2  14 130.109 20.7484   6
  -4   2  14 125.675 16.4673   5
   4  -2  14 140.193 36.8094   7
   4   2  16 1400.36 102.993   4
   4  -2  16 1417.82 109.217   3
   4  -2  16 1465.67 90.8747   4
   4   2  16 1390.82 117.268   3
   4  -2  16 1631.87 106.174   1
  -4  -2  16 1546.47 105.578   8
  -4   2  16 1532.90 81.0117   7
  -4   2  16 1331.72 82.6234   8
   4  -2  16 1347.73 102.460   9
   4   2  16 1576.72 115.645   9
  -4  -2  16 1338.06 51.7879   5
   4  -2  16 1850.43 123.578   7
   4  -2  18 176.439 36.2419   4
  -4   2  18 133.431 31.9448   8
   4  -2  18 127.940 32.0069   8
  -4  -2  18 169.134 35.0100   7
  -4   2  18 163.914 31.9381   7
   4  -2  18 173.479 38.2931   1
   4  -2  18 175.729 42.6593   3
   4   2  18 88.1698 38.4472   3
   4  -2  20 613.014 63.5046   4
   4   2  20 511.095 67.4236   4
  -4   2  20 536.404 55.7652   7
   4   2  20 600.142 66.2946   1
   4  -2  20 504.463 56.7690   1
   4   2  20 507.737 78.7406   3
  -4  -2  20 413.503 52.7210   3
   4   2  22 288.387 56.2777   4
   4  -2  22 299.886 48.1904   4
  -4   2  22 276.134 45.0362   7
   4   2  22 237.242 46.0012   1
   4  -2  22 246.057 54.4904   3
   4  -2  22 218.266 41.0554   1
  -4  -2  22 210.620 42.2372   3
  -4  -2  24 45.9401 30.6282   4
   4  -2  24 70.3806 30.1052   4
  -4  -2  24 33.6274 25.7360   3
   4   3 -17 164.068 45.4601   9
   4  -3 -17 223.021 52.4221   9
   4  -3 -15 540.089 73.5047   9
   4   3 -15 546.897 70.2907   9
  -4  -3 -15 588.990 28.6476   5
  -4   3 -13 3708.26 141.957   7
   4   3 -13 3919.96 170.683   9
  -4  -3 -13 3985.64 101.908   6
  -4   3 -13 3568.59 96.1491   5
  -4   3 -11 1558.47 102.116   4
  -4  -3 -11 1094.99 62.5370   7
  -4   3  -9 1516.39 112.220   3
  -4  -3  -9 1656.47 119.458   4
  -4   3  -9 1465.65 84.8141   4
   4  -3  -9 1298.28 70.2023   6
  -4  -3  -9 1232.19 63.8418   7
  -4   3  -9 1213.41 54.3423   5
  -4   3  -7 4805.32 142.424   4
  -4  -3  -7 5470.88 196.425   4
  -4   3  -7 5204.17 192.061   3
   4   3  -7 4750.62 153.770   8
   4  -3  -7 4379.16 135.837   6
  -4   3  -7 4398.22 117.106   5
  -4  -3  -7 4324.97 130.151   7
  -4  -3  -5 2454.87 113.964   4
  -4   3  -5 2638.91 89.4098   4
  -4   3  -5 2768.04 121.976   3
   4   3  -5 2352.48 106.521   8
   4  -3  -5 2641.99 97.5362   6
  -4   3  -5 2411.39 79.8854   5
  -4   3  -3 3835.67 103.562   4
  -4  -3  -3 3614.23 125.192   4
   4   3  -3 3719.50 96.6862   4
   4  -3  -3 4548.37 132.701   1
   4   3  -3 3952.34 72.7631   2
   4   3  -3 3464.83 141.669   8
   4  -3  -3 4165.02 121.766   6
  -4   3  -3 3481.62 104.432   7
  -4   3  -3 3493.17 102.550   5
   4  -3  -1 6633.38 151.516   2
  -4   3  -1 6610.89 145.747   4
  -4  -3  -1 6248.67 162.499   4
   4   3  -1 6609.96 149.007   4
  -4  -3   1 6344.76 140.967   3
  -4   3   1 6512.92 148.969   2
  -4   3   1 6287.21 139.126   4
   4   3   1 5770.50 149.617   4
  -4  -3   1 6419.29 147.416   4
   4   3   1 5607.54 158.571   3
   4  -3   1 6939.71 167.931   6
  -4   3   1 5921.61 146.610   5
  -4   3   3 3671.89 98.4400   2
   4   3   3 3516.59 130.493   3
  -4  -3   3 3464.73 92.9899   4
   4  -3   3 3310.70 95.2474   4
   4   3   3 2869.00 108.668   4
  -4   3   3 3089.21 97.7996   5
   4  -3   3 4040.96 120.217   6
   4  -3   5 2407.72 81.5154   4
  -4  -3   5 2316.44 71.5588   4
  -4  -3   5 2134.75 52.1488   2
   4   3   5 2115.85 112.112   3
  -4   3   5 2319.27 77.9159   2
  -4  -3   5 2440.94 129.906   8
   4  -3   5 2633.07 84.0741   8
   4  -3   5 2793.07 98.8945   6
   4  -3   5 2542.08 103.297   7
  -4   3   5 1997.55 76.3230   5
  -4  -3   7 4410.09 111.539   4
   4  -3   7 4541.73 128.966   4
  -4  -3   7 4601.45 94.4265   2
  -4  -3   7 5412.34 199.812   8
   4  -3   7 5098.81 131.366   8
   4  -3   7 5383.11 151.444   6
  -4   3   7 3984.06 118.108   5
   4  -3   7 5325.10 165.207   7
   4  -3   9 1214.58 65.5143   4
  -4  -3   9 1265.84 93.2351   8
   4  -3   9 1283.20 63.3706   8
  -4   3   9 1238.06 56.9497   5
   4  -3   9 1412.25 87.0005   7
   4  -3  11 1256.40 70.1437   4
   4  -3  11 1372.56 96.8666   1
   4  -3  11 1152.67 65.7569   8
  -4  -3  11 1285.43 94.4191   8
   4  -3  11 1389.80 92.3316   7
   4   3  13 3681.06 168.115   4
   4  -3  13 4015.03 168.279   1
  -4   3  13 4020.72 130.641   8
  -4  -3  13 3970.86 140.797   6
  -4   3  13 3723.87 103.098   5
   4   3  15 430.140 60.0819   4
   4  -3  15 487.692 63.5548   3
   4  -3  15 562.172 51.9857   4
   4   3  15 466.514 70.2532   3
  -4   3  15 441.853 44.6216   8
   4  -3  15 519.906 61.0106   9
  -4   3  15 517.192 45.4090   7
   4   3  15 489.505 64.3676   9
  -4  -3  15 570.611 68.7663   8
  -4   3  15 485.350 28.3068   5
  -4  -3  15 533.959 41.2691   6
   4  -3  15 660.195 72.5248   7
   4  -3  17 206.860 35.4518   4
   4   3  17 160.738 42.5741   4
   4  -3  17 163.899 41.1027   3
   4  -3  17 196.109 39.0414   1
   4   3  17 134.185 46.2012   3
  -4   3  17 146.443 31.2973   8
   4  -3  17 175.623 42.4127   9
   4  -3  17 141.118 33.2825   8
  -4   3  17 226.214 33.7650   7
   4   3  17 221.164 49.9429   9
  -4  -3  17 199.183 47.9712   8
   4  -3  17 245.522 51.6420   7
  -4  -3  17 140.577 17.3205   5
   4  -3  19 2055.45 107.813   4
  -4   3  19 2032.92 101.188   7
   4  -3  19 1842.96 114.803   8
  -4  -3  19 1956.40 110.410   7
   4   3  19 1508.21 131.781   3
  -4  -3  19 1561.30 96.5462   3
   4  -3  19 1732.40 104.417   1
   4  -3  21 741.613 65.8465   4
   4   3  21 756.320 85.2958   4
  -4   3  21 849.695 68.3424   7
   4   3  21 694.307 71.7653   1
   4  -3  21 682.539 66.9570   1
   4   3  21 648.541 90.3750   3
  -4  -3  21 572.223 60.8046   3
   4  -3  23 554.994 58.7584   4
  -4  -3  23 408.047 59.7750   4
  -4  -3  23 383.781 52.6317   3
   4  -3  23 433.112 54.0267   1
  -4   3  23 554.103 59.9811   7
   4  -4 -18 1729.81 140.560   9
   4   4 -18 1674.75 131.449   9
   4   4 -16 5183.58 224.909   9
   4  -4 -16 4712.94 222.247   9
  -4  -4 -16 4893.71 103.896   5
   4   4 -14 1731.31 118.203   9
   4  -4 -14 1542.36 116.527   9
  -4  -4 -14 1684.65 66.2769   6
   4  -4 -12 4297.37 186.806   9
  -4  -4 -12 4683.95 143.051   7
   4  -4 -12 4724.92 150.911   6
  -4   4 -10 15860.5 336.332   4
  -4   4 -10 16624.9 419.318   3
  -4  -4 -10 12548.3 276.210   7
   4  -4 -10 12259.9 331.284   9
   4  -4 -10 12727.1 285.076   6
  -4   4 -10 13352.2 265.523   5
  -4   4  -8 7761.53 253.919   3
   4   4  -8 8675.05 179.545   1
  -4   4  -8 7341.21 190.356   4
  -4  -4  -8 8129.87 276.401   4
  -4   4  -8 6723.90 161.839   5
   4  -4  -8 6597.85 179.873   6
  -4  -4  -8 6248.78 170.676   7
  -4  -4  -6 16372.6 384.401   4
  -4   4  -6 15947.8 295.333   4
  -4   4  -6 17391.6 372.358   3
   4   4  -6 12469.9 335.496   8
  -4   4  -6 14497.3 283.239   5
   4  -4  -6 15163.7 303.330   6
  -4  -4  -6 12829.2 290.777   7
  -4   4  -4 7853.13 167.273   4
  -4  -4  -4 7926.75 221.007   4
   4  -4  -4 8505.83 191.766   1
  -4   4  -4 7714.95 146.368   8
   4   4  -4 7134.02 230.838   8
  -4   4  -4 7092.60 171.289   7
  -4   4  -4 7116.73 168.852   5
  -4  -4  -2 7063.14 184.630   4
   4  -4  -2 7007.68 175.238   5
   4   4  -2 7008.31 152.078   4
  -4   4  -2 7446.28 153.156   4
   4   4  -2 7114.78 126.303   2
   4  -4  -2 6913.11 157.669   2
  -4   4  -2 6263.58 135.752   8
   4   4  -2 6352.71 225.527   8
  -4   4  -2 6754.00 158.031   7
  -4   4  -2 6495.51 162.811   5
  -4   4   0 25654.5 433.772   2
  -4   4   0 25199.0 415.432   4
  -4  -4   0 24534.6 438.122   4
   4   4   0 23247.9 428.746   4
   4   4   0 22212.7 427.600   3
   4  -4   0 25948.5 449.665   5
  -4   4   0 24535.4 421.266   7
   4  -4   2 9149.12 239.732   1
   4   4   2 7785.73 207.523   3
  -4   4   2 7959.01 174.193   2
  -4  -4   2 7918.32 172.300   4
   4   4   2 6686.05 186.757   4
   4  -4   2 8575.04 195.551   5
  -4   4   2 7786.42 180.848   5
   4   4   4 6293.03 197.477   3
   4  -4   4 5122.06 159.140   2
  -4   4   4 6351.85 146.101   2
   4  -4   4 5803.20 136.371   4
  -4  -4   4 5790.94 133.749   4
   4   4   4 4793.36 162.438   4
   4  -4   4 6740.84 167.968   5
   4  -4   4 7026.43 181.916   7
  -4   4   4 6015.42 150.404   5
   4  -4   6 15505.1 286.264   4
  -4  -4   6 15643.2 274.300   4
  -4  -4   6 14514.7 236.214   2
  -4   4   6 15808.6 292.838   2
  -4  -4   6 15961.5 414.736   8
   4  -4   6 17394.9 341.952   8
  -4   4   6 14077.7 289.423   5
   4  -4   6 15575.5 336.032   7
   4  -4   8 7426.78 177.025   4
  -4  -4   8 7700.14 160.290   4
  -4  -4   8 8055.62 280.179   8
   4  -4   8 8335.19 209.553   8
   4  -4   8 7915.66 231.402   7
   4  -4   8 7962.83 199.818   6
   4  -4  10 13628.9 287.924   4
   4  -4  10 14128.9 356.054   1
   4  -4  10 14010.5 313.931   8
  -4  -4  10 14936.0 401.112   8
   4  -4  10 15082.4 348.826   7
   4  -4  12 5911.04 211.500   1
  -4  -4  12 6012.31 236.166   8
   4  -4  12 6568.85 184.400   6
   4  -4  12 6048.62 208.906   7
   4   4  14 1868.42 124.566   4
   4  -4  14 2584.09 104.328   4
  -4  -4  14 1776.63 83.5328   3
  -4   4  14 1924.18 81.4966   7
   4   4  14 2537.27 138.780   9
  -4  -4  14 2455.99 150.169   8
   4  -4  14 2228.06 118.059   9
   4  -4  14 2692.11 139.652   7
  -4  -4  14 1764.30 98.5404   6
  -4   4  14 1921.04 68.3425   5
   4   4  16 4151.76 197.511   4
   4  -4  16 5370.30 165.177   4
   4   4  16 4401.10 224.713   3
   4  -4  16 4820.58 182.975   1
  -4  -4  16 4123.54 146.654   3
  -4  -4  16 5326.74 234.032   8
   4   4  16 5481.35 227.471   9
   4  -4  16 5191.79 204.003   9
   4  -4  16 4939.97 183.993   8
  -4   4  16 4896.97 146.692   7
  -4   4  16 4655.86 157.492   8
  -4  -4  16 3969.83 132.840   6
   4  -4  16 5996.21 228.590   7
   4  -4  18 1682.68 91.8797   4
   4   4  18 1549.24 119.954   4
   4  -4  18 1478.62 98.8336   1
   4   4  18 1323.32 125.875   3
  -4  -4  18 1344.94 81.5636   3
  -4   4  18 1786.00 88.2254   7
   4  -4  18 1591.99 106.556   8
  -4  -4  18 1496.91 49.9802   5
   4  -4  20 50.3320 26.8820   1
  -4  -4  20 29.9513 22.2048   3
   4   4  20 20.7956 30.1887   3
   4  -4  20 59.6356 23.9141   4
  -4   4  20 32.3962 22.8809   7
  -4  -4  22 1014.45 86.0825   4
   4  -4  22 1475.22 89.4160   4
  -4   4  22 1340.46 84.7480   7
  -4  -4  22 928.630 73.9478   3
   4  -4  22 1053.22 80.9620   1
   4   4  22 978.214 84.3290   1
  -4  -4  24 361.234 52.0785   4
   4  -4  24 393.467 49.0402   4
   4  -5 -17 3562.24 198.269   9
  -4  -5 -17 3703.24 82.4091   5
  -4  -5 -17 3859.52 79.1927   5
   4   5 -15 1812.00 120.340   1
   4  -5 -15 1953.52 138.337   9
   4   5 -15 2153.67 138.939   9
  -4  -5 -15 2152.37 82.1173   6
   4   5 -13 1605.73 94.9699   1
   4  -5 -13 1759.94 121.379   9
   4   5 -13 1977.42 121.240   9
   4  -5 -13 1977.34 91.6409   6
  -4  -5 -11 4031.23 129.083   7
   4  -5 -11 4102.61 175.604   9
  -4   5  -9 4685.94 143.954   4
  -4   5  -9 4952.76 201.106   3
   4   5  -9 3738.92 145.712   9
   4  -5  -9 3559.18 149.921   9
   4  -5  -9 3834.07 124.515   6
  -4  -5  -9 3630.56 118.536   7
  -4   5  -9 3580.91 114.795   5
  -4   5  -7 6573.61 216.512   3
  -4   5  -7 5999.99 151.678   4
  -4  -5  -7 6705.09 243.811   4
  -4   5  -7 5504.67 145.098   5
  -4  -5  -7 5115.64 148.196   7
  -4  -5  -5 7281.06 230.109   4
  -4   5  -5 7786.54 162.957   4
   4  -5  -5 5907.35 154.051   1
   4   5  -5 6349.20 225.579   8
  -4   5  -5 6737.11 149.034   8
  -4   5  -5 6489.00 162.520   5
   4  -5  -5 6976.85 177.287   5
  -4  -5  -3 3393.32 131.875   4
   4   5  -3 3367.59 88.4080   4
  -4   5  -3 3382.85 91.5655   4
   4  -5  -3 3271.52 111.902   1
   4   5  -3 2769.02 151.007   8
  -4   5  -3 2714.20 87.4043   8
  -4   5  -3 2926.90 93.5103   7
  -4   5  -3 2844.60 98.2096   5
   4  -5  -3 3351.15 112.391   5
  -4   5  -1 16305.0 312.161   2
   4   5  -1 14778.1 286.318   3
   4   5  -1 14740.9 292.192   4
  -4   5  -1 15688.3 285.487   4
  -4  -5  -1 15745.9 325.105   4
  -4   5  -1 15527.5 290.736   7
   4  -5  -1 16978.4 327.735   5
  -4   5   1 14483.6 278.429   2
   4   5   1 13551.5 300.288   3
   4   5   1 13074.0 286.274   4
  -4  -5   1 14269.4 281.401   4
  -4   5   1 14047.8 264.116   7
  -4   5   1 13795.5 282.920   5
  -4   5   3 2982.68 95.9763   2
   4  -5   3 2607.89 99.7941   2
  -4  -5   3 3074.40 91.5034   4
   4   5   3 2682.70 110.446   4
  -4   5   3 2967.57 99.7978   5
   4  -5   3 3427.48 115.387   5
   4  -5   3 3283.47 116.423   7
  -4   5   5 7457.67 173.772   2
  -4  -5   5 6935.88 151.739   4
   4  -5   5 6939.17 154.588   4
   4  -5   5 7049.56 186.305   5
  -4   5   5 6697.25 171.738   5
  -4  -5   7 5496.99 126.967   4
   4  -5   7 5728.54 136.467   4
  -4  -5   7 5902.29 245.423   8
   4  -5   7 6122.12 206.484   8
  -4   5   7 5253.35 144.804   5
   4  -5   7 5785.41 163.251   5
   4  -5   7 6164.39 188.975   7
   4  -5   9 4309.04 170.955   1
  -4  -5   9 4174.41 207.757   8
   4  -5   9 4232.89 162.021   8
  -4   5   9 3629.64 111.143   5
   4  -5   9 4208.37 157.997   7
  -4  -5  11 4383.41 111.902   4
  -4  -5  11 3870.38 109.257   3
   4  -5  11 4557.20 179.667   1
  -4  -5  11 5223.91 238.949   8
   4  -5  11 4880.94 180.734   7
  -4   5  11 4318.85 123.219   5
   4  -5  11 5213.96 156.267   6
   4  -5  13 2343.86 90.9239   4
   4  -5  13 2155.27 118.637   1
  -4  -5  13 1827.00 76.7883   3
  -4   5  13 2069.79 78.1277   7
   4   5  13 2562.96 136.672   9
   4  -5  13 2299.02 114.573   9
  -4  -5  13 2471.21 164.502   8
   4  -5  13 2570.72 110.021   6
  -4   5  13 1920.22 75.2282   5
   4  -5  13 2560.40 135.843   7
   4   5  15 1591.28 121.898   4
   4  -5  15 2093.28 91.9976   4
  -4  -5  15 1770.88 82.3306   3
   4   5  15 1653.66 134.471   3
   4  -5  15 2013.41 119.543   9
   4  -5  15 2283.85 128.114   8
   4   5  15 2442.38 146.261   9
  -4  -5  15 2298.25 163.884   8
  -4   5  15 2132.12 84.2394   7
   4  -5  15 2673.61 117.736   6
   4  -5  15 2401.76 139.793   7
   4  -5  17 4465.00 141.860   4
   4   5  17 3282.60 181.194   4
  -4  -5  17 3272.81 124.387   3
   4  -5  17 3677.37 162.708   1
   4   5  17 3191.97 199.114   3
  -4   5  17 4082.59 129.608   7
   4   5  17 4584.99 217.787   9
   4  -5  17 4215.62 187.518   8
   4  -5  17 4113.63 183.480   9
  -4   5  17 3550.38 137.926   8
  -4  -5  17 3189.81 121.342   6
   4  -5  17 4616.10 206.980   7
   4   5  19 708.453 87.3339   4
   4  -5  19 855.561 61.9751   4
  -4  -5  19 612.123 54.4118   3
   4  -5  19 649.408 66.1747   1
   4   5  19 675.218 94.0532   3
  -4   5  19 790.222 57.9416   7
  -4  -5  19 727.783 33.2725   5
  -4  -5  21 911.706 69.2258   3
   4  -5  21 1266.84 77.0079   4
  -4  -5  21 918.685 76.3344   4
  -4   5  21 1310.25 78.9531   7
   4  -5  21 879.136 75.8582   1
  -4  -5  23 1793.67 98.6711   3
  -4  -5  23 1844.94 105.258   4
   4  -6 -16 2855.57 172.058   9
   4   6 -16 3155.01 170.031   9
   4   6 -14 2940.42 148.683   1
   4  -6 -14 2945.89 166.817   9
   4  -6 -14 3130.06 120.660   6
   4  -6 -12 4978.63 205.842   9
   4  -6 -12 5786.76 167.673   6
   4   6 -10 3171.40 120.370   1
  -4   6 -10 3154.32 164.542   3
   4  -6 -10 2053.08 116.952   9
  -4  -6 -10 2230.64 89.5934   7
  -4   6 -10 2119.07 88.6258   5
   4  -6  -8 9227.39 229.575   5
  -4   6  -8 9549.14 220.602   8
  -4   6  -8 9727.35 224.470   5
  -4  -6  -8 9443.28 223.402   7
  -4   6  -6 24085.8 410.498   4
   4  -6  -6 24467.1 446.165   5
   4   6  -4 623.467 33.0356   4
  -4   6  -4 644.920 36.9561   4
  -4  -6  -4 616.811 62.7123   4
   4  -6  -4 557.549 42.6385   1
  -4   6  -4 509.455 39.2338   8
  -4   6  -4 477.913 38.1060   7
  -4   6  -4 712.082 47.3340   5
   4  -6  -4 568.872 46.1458   5
  -4   6  -2 7491.86 161.492   4
  -4  -6  -2 8057.37 219.644   4
   4   6  -2 7960.15 168.603   4
  -4   6  -2 7808.44 191.366   2
   4  -6  -2 7716.94 200.226   1
  -4   6  -2 7091.00 193.229   8
  -4   6  -2 7087.96 168.262   7
   4  -6  -2 8031.47 198.587   5
   4   6   0 48496.6 790.299   4
  -4  -6   0 51719.5 811.961   4
  -4   6   0 49135.7 791.904   2
   4   6   0 45308.1 799.236   3
   4  -6   0 52365.2 839.943   1
  -4   6   0 42528.3 757.530   7
   4  -6   0 53490.1 819.368   5
  -4   6   2 8209.16 182.822   2
  -4  -6   2 8207.27 180.585   4
   4   6   2 6751.08 191.484   4
   4  -6   2 8028.67 201.656   5
  -4   6   2 7274.04 154.398   7
   4  -6   2 6856.69 186.550   7
  -4   6   4 526.488 39.2402   2
  -4  -6   4 499.500 33.3777   4
   4   6   4 555.721 52.3910   4
  -4   6   4 448.329 39.1148   5
   4  -6   4 466.872 43.0298   5
   4  -6   4 551.736 48.6967   7
  -4   6   4 431.859 27.5297   7
   4  -6   6 20436.4 443.806   2
  -4   6   6 23720.0 430.501   2
  -4  -6   6 26712.9 404.767   4
   4  -6   6 22230.1 396.175   4
  -4   6   6 20347.9 423.836   5
   4  -6   6 26089.2 463.058   5
   4  -6   6 25437.2 480.960   7
   4  -6   8 11884.3 335.178   8
   4  -6   8 11524.0 287.127   7
   4  -6   8 11026.3 258.807   5
  -4  -6  10 3025.37 83.5299   4
  -4  -6  10 3353.78 197.816   8
   4  -6  10 3087.08 140.523   7
  -4  -6  12 4806.62 121.169   3
  -4  -6  12 5865.75 129.109   4
   4  -6  12 5650.94 142.941   4
   4  -6  12 5404.17 192.254   1
  -4   6  12 5300.36 126.343   7
  -4  -6  12 6520.21 286.875   8
  -4   6  12 4567.00 139.799   5
   4  -6  12 6193.85 217.777   7
   4  -6  14 3964.01 119.678   4
  -4  -6  14 3759.26 100.208   4
  -4  -6  14 3204.84 103.516   3
  -4  -6  14 3754.09 224.635   8
   4   6  14 3944.53 184.762   9
   4  -6  14 3717.15 183.905   8
   4  -6  14 3393.96 150.118   9
  -4   6  14 3691.69 105.027   7
   4  -6  14 4572.89 153.365   6
   4  -6  14 3940.63 181.501   7
  -4  -6  16 2614.47 102.566   3
   4  -6  16 3079.77 110.581   4
   4   6  16 2458.18 159.478   4
  -4  -6  16 3278.80 96.3265   4
   4  -6  16 2884.66 139.462   1
  -4   6  16 3420.83 106.505   7
   4   6  16 3608.09 189.539   9
  -4  -6  16 3479.00 219.461   8
   4  -6  16 3442.21 181.332   8
   4  -6  16 3580.74 178.330   7
   4  -6  16 3925.89 145.085   6
  -4  -6  18 253.668 32.9121   3
   4   6  18 279.185 58.0318   4
   4  -6  18 324.602 36.3471   4
   4   6  18 230.029 60.4735   3
   4  -6  18 290.130 46.3268   1
  -4   6  18 341.858 36.5097   7
   4  -6  18 330.355 61.9574   8
  -4  -6  18 281.035 37.3227   6
  -4  -6  18 262.262 25.3077   5
   4  -6  20 704.497 69.3833   1
   4   6  20 671.582 99.2899   3
  -4  -6  20 712.733 55.8213   3
   4  -6  20 680.327 53.1566   4
  -4  -6  20 656.308 60.4097   4
   4   6  20 797.165 96.5982   4
  -4  -6  20 773.568 34.6453   5
  -4   6  20 911.154 60.6495   7
   4  -6  22 1254.49 72.2871   4
  -4  -6  22 1100.98 75.0485   4
   4   7 -17 1655.36 137.311   1
  -4  -7 -17 1491.56 74.5536   6
   4   7 -15 1275.30 111.637   1
   4  -7 -15 1044.15 101.556   9
   4   7 -15 1286.17 103.803   9
   4  -7 -15 1107.95 71.1631   6
   4   7 -13 3265.59 161.400   8
  -4  -7 -13 3382.20 118.464   7
   4  -7 -13 2978.29 162.425   9
   4   7 -13 3265.97 160.584   9
   4  -7 -13 3219.55 123.981   6
  -4   7 -11 2054.82 99.1163   4
  -4   7 -11 2404.19 149.977   3
   4  -7  -9 918.280 75.1050   9
   4   7  -9 1080.78 73.9926   9
  -4   7  -9 1005.40 61.1286   8
  -4   7  -9 1045.53 63.2727   5
   4  -7  -9 1042.06 65.6377   5
  -4   7  -7 5752.33 197.781   3
   4   7  -7 5634.45 161.418   1
  -4   7  -7 4119.29 136.217   8
   4  -7  -7 5400.36 159.736   5
  -4   7  -7 4673.96 145.324   5
  -4   7  -5 3265.65 92.2577   4
  -4   7  -5 2807.88 107.237   8
  -4   7  -5 3035.89 109.783   7
  -4   7  -5 2913.81 108.829   5
   4  -7  -5 3206.32 118.558   5
  -4   7  -3 18.3060 8.78265   4
   4   7  -3 16.7425 9.31046   4
  -4  -7  -3 11.7252 18.2859   4
   4  -7  -3 17.3856 14.5285   1
  -4   7  -3 36.0335 19.3666   8
  -4   7  -3 17.5893 12.1760   7
   4  -7  -3 11.5961 12.1316   5
  -4   7  -1 4994.08 120.102   4
  -4  -7  -1 5178.83 167.585   4
   4   7  -1 5197.77 134.925   4
   4  -7  -1 4741.93 153.884   1
   4   7  -1 4623.45 132.541   3
  -4   7  -1 5090.03 143.414   2
  -4   7  -1 4837.90 124.063   7
   4  -7  -1 4870.38 153.852   5
   4   7   1 4420.19 139.552   4
  -4   7   1 4788.22 134.909   2
   4  -7   1 4621.14 158.620   1
  -4   7   1 4608.46 113.956   7
   4  -7   1 4747.62 151.004   5
   4   7   3 43.5538 19.0260   4
  -4  -7   3 41.4060 13.5607   4
  -4   7   3 65.8934 16.8310   2
   4  -7   3 53.7588 16.9879   2
  -4   7   3 75.8140 27.1167   1
  -4   7   3 66.1312 11.6652   7
   4  -7   3 63.7081 20.3957   5
   4  -7   3 59.9832 19.7209   7
  -4   7   3 123.390 22.3406   5
  -4   7   5 3458.10 111.572   2
   4  -7   5 3414.53 124.719   5
   4  -7   5 3468.55 132.125   7
  -4   7   5 3230.73 112.543   5
  -4   7   7 4994.47 147.366   2
   4  -7   7 5333.53 179.148   7
   4  -7   7 5231.14 162.161   5
  -4   7   7 4816.70 145.513   5
  -4   7   7 5225.13 107.741   7
   4  -7   9 919.782 67.7896   2
  -4  -7   9 988.279 42.5350   4
   4  -7   9 1008.13 45.7045   4
   4  -7   9 1086.68 71.1129   5
   4  -7   9 1115.41 82.7617   7
   4  -7  11 1931.56 64.3082   4
  -4  -7  11 1897.75 57.9513   4
   4  -7  11 1809.21 106.398   1
  -4   7  11 1848.94 50.9432   7
  -4  -7  11 2267.26 172.124   8
   4  -7  11 2071.13 96.4894   5
  -4   7  11 1660.60 75.9828   5
   4  -7  11 2128.98 119.616   7
   4  -7  13 3742.81 105.348   4
  -4  -7  13 3547.81 92.4349   4
   4  -7  13 3046.17 144.116   1
  -4  -7  13 3520.25 224.394   8
  -4   7  13 3061.54 86.9602   7
   4   7  13 3715.60 173.360   9
   4  -7  13 3745.89 201.541   8
   4  -7  13 3603.27 172.404   7
   4  -7  15 1544.15 66.1864   4
  -4  -7  15 1286.49 53.2700   4
  -4  -7  15 1414.33 146.136   8
  -4   7  15 1451.17 57.1590   7
   4   7  15 1476.07 119.221   9
   4  -7  15 1310.93 122.947   8
   4  -7  15 1493.40 87.4917   6
   4  -7  15 1316.16 108.204   7
   4   7  17 1323.53 122.973   4
  -4  -7  17 1851.12 67.0430   4
   4  -7  17 1989.66 79.4083   4
   4  -7  17 1518.60 101.531   1
  -4   7  17 1977.19 73.9862   7
   4  -7  17 1848.87 151.248   8
  -4  -7  17 1572.79 69.9731   5
   4  -7  17 2012.75 104.693   6
   4   7  19 436.050 80.9843   3
   4  -7  19 621.088 46.1851   4
   4   7  19 505.876 78.4454   4
  -4  -7  19 586.357 37.4506   4
  -4  -7  19 411.993 45.2783   6
  -4  -7  19 629.508 39.5376   5
  -4   7  19 662.109 46.6448   7
  -4  -7  21 469.015 45.1943   4
   4  -7  21 666.753 47.9421   4
  -4  -8 -18 863.482 42.8982   5
  -4  -8 -18 720.503 51.5983   6
   4   8 -16 2112.24 152.452   1
   4  -8 -16 2364.13 108.479   6
   4   8 -14 789.155 81.4369   1
  -4  -8 -14 608.979 49.1280   7
   4   8 -14 608.779 72.9105   8
   4  -8 -14 647.815 54.9179   6
  -4  -8 -12 696.367 48.8836   7
  -4   8 -12 999.283 103.219   3
  -4   8 -10 7451.89 265.060   3
   4   8 -10 7710.79 222.927   1
  -4   8  -8 2317.61 128.055   3
   4   8  -8 2620.52 121.804   1
  -4   8  -8 1666.22 85.7939   8
   4  -8  -8 1618.74 95.9521   9
   4   8  -8 1669.48 89.8436   9
   4  -8  -8 1915.01 94.5350   5
  -4   8  -6 985.818 66.3453   8
  -4   8  -6 1024.76 64.1588   7
   4  -8  -6 1043.90 68.3457   5
   4   8  -4 6073.69 129.604   4
  -4   8  -4 6115.39 135.814   4
  -4   8  -4 5058.59 178.007   8
  -4   8  -4 4998.32 150.785   7
   4  -8  -4 5740.64 175.174   5
  -4  -8  -2 4845.47 178.242   4
   4   8  -2 4307.72 117.506   4
  -4   8  -2 4325.34 110.282   4
  -4   8  -2 4806.72 142.765   2
  -4   8  -2 4324.67 123.870   7
   4  -8  -2 4492.81 151.454   5
  -4  -8   0 2909.58 119.574   4
   4   8   0 2868.85 104.088   4
   4  -8   0 2866.49 121.243   1
  -4   8   0 2934.61 104.875   2
  -4   8   0 2633.34 85.5945   7
   4  -8   0 2659.73 117.892   5
  -4  -8   2 4014.70 129.691   4
   4   8   2 3695.77 134.629   4
   4  -8   2 3571.86 124.163   2
  -4   8   2 4093.85 126.697   2
  -4   8   2 3943.27 100.703   7
   4  -8   2 4167.21 149.414   5
   4  -8   2 4466.60 143.212   7
  -4   8   4 6003.64 161.464   2
   4  -8   4 4881.18 157.014   2
  -4   8   4 7305.94 237.387   1
   4   8   4 4887.04 176.423   4
   4  -8   4 6427.90 187.535   7
   4  -8   4 5885.83 178.877   5
  -4   8   4 5744.61 167.430   5
  -4  -8   6 1192.22 51.2226   4
   4  -8   6 1032.59 67.5401   2
  -4   8   6 1238.07 67.0815   2
  -4   8   6 1095.94 34.9652   7
   4  -8   6 1151.26 73.5292   5
  -4   8   6 1081.72 66.2934   5
   4  -8   6 1079.45 75.5214   7
  -4  -8   8 1616.18 55.8871   4
   4  -8   8 1632.23 88.1770   2
  -4   8   8 1580.01 36.0881   7
   4  -8   8 1656.79 101.369   7
   4  -8   8 1544.62 85.4254   5
   4  -8  10 5590.14 205.506   1
   4  -8  10 5970.62 192.078   2
  -4  -8  10 6673.16 135.440   4
   4  -8  10 6273.13 137.368   4
   4  -8  10 6828.60 228.507   7
  -4  -8  12 613.819 31.9677   4
   4  -8  12 690.820 37.0754   4
   4  -8  12 603.519 63.9024   1
   4  -8  12 667.613 61.0274   2
   4  -8  12 780.327 99.1153   8
  -4   8  12 673.744 22.1099   7
   4   8  12 748.900 76.7939   9
   4  -8  12 591.299 55.6735   5
   4  -8  12 730.698 76.1700   7
   4   8  14 307.619 59.6659   4
  -4  -8  14 498.203 30.2536   4
   4  -8  14 552.231 34.6620   4
  -4  -8  14 538.588 26.3953   2
   4  -8  14 704.780 99.8990   8
  -4  -8  14 747.471 115.262   8
   4  -8  14 527.834 59.2521   9
   4  -8  14 601.711 74.2857   7
  -4   8  14 559.425 25.4916   7
   4  -8  16 2684.57 84.5695   4
  -4  -8  16 2481.67 73.5496   4
   4  -8  16 2298.17 126.990   1
   4  -8  16 2720.84 193.137   8
   4  -8  16 2576.76 137.832   9
   4  -8  16 2866.86 125.616   6
  -4   8  16 2767.82 73.6462   7
   4   8  18 606.331 87.0624   4
  -4  -8  18 836.316 40.4798   4
   4  -8  18 825.945 46.0506   4
  -4  -8  18 706.407 49.5072   4
   4  -8  18 800.473 111.996   8
   4  -8  18 934.012 72.3933   6
  -4   8  18 895.735 43.7023   7
  -4  -8  18 724.638 48.1340   5
  -4  -8  20 409.646 37.0517   4
  -4  -8  20 496.904 31.7370   4
   4  -8  20 485.861 37.0954   4
  -4  -8  20 477.693 35.4876   5
  -4  -9 -19 2529.86 95.3049   6
  -4  -9 -19 2072.44 67.1389   5
   4   9 -17 1035.56 118.340   1
   4  -9 -17 780.454 64.9974   6
  -4  -9 -17 995.863 59.0160   5
   4   9 -15 1237.84 107.894   8
   4   9 -15 1305.99 103.203   9
  -4  -9 -15 1160.38 69.4712   7
   4  -9 -15 1355.31 82.9287   6
   4   9 -13 3689.77 182.839   8
  -4  -9 -13 3499.82 119.808   7
  -4   9 -11 5557.63 229.515   3
   4   9 -11 5680.68 196.290   1
   4   9  -9 11415.1 292.897   1
  -4   9  -9 9418.97 204.709   4
  -4   9  -9 10434.0 307.541   3
   4  -9  -9 8789.39 239.706   5
  -4  -9  -9 7589.15 203.264   7
  -4   9  -7 4450.65 111.751   4
   4  -9  -7 4029.00 146.010   5
  -4   9  -5 5623.79 145.864   7
  -4   9  -5 5114.55 166.196   8
  -4   9  -3 19739.7 345.753   4
   4   9  -3 18354.9 346.445   4
  -4   9  -3 18159.6 443.271   8
  -4   9  -3 20090.1 380.423   7
   4  -9  -3 21498.2 426.874   5
   4   9  -1 4646.12 133.276   4
  -4   9  -1 4614.30 118.439   4
  -4   9  -1 4717.46 145.256   2
  -4   9  -1 4260.89 125.678   7
   4  -9  -1 4835.41 166.064   5
  -4   9   1 4570.71 139.292   2
   4  -9   1 4102.29 134.697   2
   4   9   1 3916.30 142.239   4
   4  -9   1 4851.19 165.523   5
   4  -9   1 4912.55 150.760   7
  -4   9   3 20932.7 394.932   2
   4  -9   3 22061.0 441.110   5
   4  -9   3 21049.1 425.095   7
  -4  -9   5 6096.22 149.387   4
   4  -9   5 5657.13 171.665   2
  -4   9   5 5845.90 167.579   2
  -4   9   5 5640.38 115.456   7
   4  -9   5 6366.95 195.300   5
   4  -9   5 6466.08 195.773   7
   4  -9   7 3389.26 129.767   2
  -4   9   7 3906.66 132.675   2
  -4  -9   7 3703.44 96.9743   4
   4  -9   7 3766.67 143.664   5
  -4   9   7 3562.68 133.885   5
   4  -9   7 4025.55 161.053   7
   4  -9   9 8738.87 239.054   2
  -4  -9   9 9145.34 171.222   4
  -4  -9  11 4354.15 95.1494   4
   4  -9  11 4045.23 170.444   1
   4  -9  11 4423.10 151.546   9
   4  -9  11 4859.15 166.416   5
   4  -9  11 4907.40 196.383   7
  -4  -9  13 3480.16 80.0678   4
   4  -9  13 3573.73 87.7471   4
   4  -9  13 3167.10 151.174   1
   4  -9  13 3241.41 140.931   9
   4  -9  13 3802.03 148.415   5
   4  -9  13 3973.36 184.608   7
  -4  -9  15 1448.53 45.8789   4
   4   9  15 840.119 100.684   4
  -4  -9  15 1244.14 52.5532   4
   4  -9  15 1458.89 52.1896   4
  -4  -9  15 1233.28 36.4614   2
   4  -9  15 1332.11 94.8396   9
   4  -9  15 1743.96 158.923   8
   4   9  15 1577.31 126.946   9
  -4  -9  17 782.291 33.0292   4
   4  -9  17 755.680 38.6140   4
   4   9  17 593.125 87.9736   4
  -4  -9  17 701.893 38.0714   4
  -4  -9  17 728.800 33.3512   2
   4  -9  17 913.035 120.198   8
   4  -9  17 756.626 76.9345   9
   4  -9  17 971.935 73.7323   6
  -4  -9  17 766.239 52.5606   5
  -4  -9  19 1939.43 63.5017   2
  -4  -9  19 1583.39 51.8400   4
  -4  -9  19 1919.47 62.9536   4
   4  -9  19 1942.22 65.8447   4
   4  -9  19 2450.28 119.496   6
  -4  -9  19 2125.47 83.9636   5
   4  10 -18 936.026 124.256   1
   4 -10 -18 798.360 66.3795   6
  -4 -10 -18 865.229 54.5116   5
   4  10 -16 679.792 98.7512   1
   4  10 -16 509.580 72.9833   8
   4 -10 -16 455.782 51.7343   6
  -4 -10 -16 616.542 54.3217   5
   4  10 -14 1852.95 132.736   8
   4  10 -14 2113.68 126.020   9
   4 -10 -14 1693.01 122.649   9
  -4 -10 -14 1744.69 80.3423   7
   4  10 -12 1160.27 105.791   8
  -4 -10 -12 955.743 57.0226   7
   4 -10 -12 892.141 83.7613   9
   4 -10 -12 1106.05 76.1579   5
  -4  10 -10 2152.82 80.4986   4
   4  10 -10 2349.47 126.907   1
   4 -10 -10 1641.32 106.424   9
  -4 -10 -10 1777.31 77.7951   7
  -4  10  -8 2929.90 85.4558   4
  -4  10  -8 3004.56 148.562   3
   4 -10  -8 2269.82 114.783   9
   4 -10  -8 2639.06 119.832   5
  -4 -10  -8 2198.06 94.4695   7
  -4  10  -6 609.567 35.1810   4
  -4  10  -6 498.294 54.9152   8
   4 -10  -6 490.436 47.5341   9
   4 -10  -6 557.166 55.4788   5
  -4  10  -4 2378.42 136.903   8
   4 -10  -4 2829.93 128.179   5
  -4  10  -2 2838.08 113.223   2
   4 -10  -2 2885.27 130.268   5
  -4  10   0 1197.77 69.1609   2
   4  10   0 996.672 62.7666   4
   4 -10   0 1100.86 80.1409   5
  -4  10   2 2588.07 103.573   2
   4 -10   2 2300.62 99.2731   2
   4  10   2 2583.66 114.409   4
   4 -10   2 2822.51 127.941   5
   4 -10   2 3037.01 119.494   7
   4 -10   4 2662.68 110.574   2
  -4  10   4 2882.20 111.218   2
  -4 -10   4 3187.88 109.472   4
   4 -10   4 2954.94 127.022   7
   4 -10   4 3043.35 134.217   5
   4 -10   6 625.144 52.7641   2
  -4  10   6 748.223 55.3692   2
  -4 -10   6 672.241 40.6151   4
   4 -10   6 678.978 62.9647   5
  -4  10   6 596.187 55.3167   5
   4 -10   6 704.796 65.8138   7
   4 -10   8 2505.75 112.518   2
  -4  10   8 2691.76 113.104   2
  -4 -10   8 2656.01 72.8406   4
   4 -10   8 2668.42 122.661   5
   4 -10   8 2732.26 136.669   7
   4  10  10 1510.17 119.555   4
  -4 -10  10 1851.24 48.0646   4
   4 -10  10 1933.85 116.514   1
  -4  10  10 2537.49 119.717   1
   4 -10  10 1980.94 93.2486   9
   4  10  10 2301.71 125.838   9
   4 -10  10 2214.66 128.957   7
   4 -10  12 1095.58 88.5068   1
   4 -10  12 1224.99 81.3045   9
   4  10  12 1210.97 100.143   9
   4 -10  12 1238.36 84.3610   5
   4 -10  12 1250.53 102.934   7
   4 -10  14 1992.29 107.992   2
   4  10  14 2230.35 146.274   9
   4 -10  14 1806.26 107.281   9
   4 -10  14 1934.51 107.284   5
   4  10  16 373.783 71.8826   4
   4 -10  16 571.575 59.7842   2
   4  10  16 629.746 85.7141   9
   4 -10  16 527.421 62.4821   9
  -4 -10  16 537.982 46.7686   5
   4 -10  18 778.274 71.6181   2
   4 -10  18 858.758 72.0252   6
  -4 -10  18 757.093 53.8864   5
   4 -10  20 2241.68 123.123   2
   4  11 -19 1354.58 150.792   1
   4  11 -17 85.5106 51.0258   1
  -4 -11 -17 107.533 27.3894   5
   4 -11 -17 99.4922 31.2889   6
   4  11 -15 170.975 55.3423   1
   4  11 -15 114.968 42.3187   8
  -4 -11 -15 79.3986 21.2825   7
   4 -11 -15 107.098 31.8995   6
  -4 -11 -15 130.531 32.6496   5
   4  11 -13 1386.28 118.512   8
  -4 -11 -13 1216.39 62.8335   7
   4  11 -13 1466.02 102.898   9
  -4  11 -13 1174.47 85.7794   8
   4 -11 -13 1371.65 88.8344   5
  -4  11 -11 919.921 74.4286   8
   4  11 -11 923.249 99.2028   8
   4 -11 -11 944.462 80.7919   9
  -4 -11 -11 1023.10 56.2308   7
   4 -11 -11 1109.95 81.0486   5
  -4  11  -9 1507.75 59.5335   4
   4  11  -9 1668.11 134.461   8
   4 -11  -9 1430.04 93.6017   9
  -4 -11  -9 1453.12 71.9638   7
  -4  11  -7 972.411 44.0870   4
   4  11  -7 821.321 59.4039   9
   4 -11  -7 792.382 62.6173   9
   4 -11  -7 873.503 71.9224   5
  -4  11  -5 531.598 32.8867   4
   4  11  -5 586.889 29.0972   4
   4  11  -5 546.787 57.1303   1
   4 -11  -5 478.232 43.6742   9
   4  11  -5 571.426 43.4439   9
   4 -11  -5 551.355 58.4209   5
  -4  11  -3 2994.32 89.7472   4
   4  11  -3 3066.71 90.7401   4
   4  11  -3 3032.34 70.2072   2
  -4  11  -3 3085.04 203.838   1
  -4  11  -3 2956.86 159.140   8
   4 -11  -3 3256.61 144.944   5
  -4  11  -1 531.066 48.2459   2
   4  11  -1 518.955 27.1804   2
   4 -11  -1 519.228 57.7499   5
  -4  11   1 545.091 48.0820   2
   4  11   1 569.472 50.9845   4
   4 -11   1 580.389 59.6532   5
  -4  11   3 3298.91 122.828   2
   4 -11   3 3429.33 139.065   7
   4 -11   3 3198.64 144.095   5
  -4  11   5 624.810 52.4242   2
   4 -11   5 648.925 53.5099   2
   4 -11   5 712.784 64.7604   7
   4 -11   5 604.967 62.6053   5
   4 -11   7 764.769 60.0123   2
  -4  11   7 994.350 88.2501   1
  -4  11   7 848.349 62.9404   2
   4  11   7 708.360 77.2696   4
   4 -11   7 789.562 73.4878   7
   4 -11   7 807.624 71.3002   5
   4 -11   9 1858.18 118.653   1
  -4  11   9 1953.28 99.1628   2
   4 -11   9 1683.83 82.5020   9
   4  11   9 2031.52 114.183   9
   4 -11   9 1766.17 115.593   7
   4  11  11 761.277 89.5497   4
   4 -11  11 1036.14 89.1950   1
   4 -11  11 1041.51 74.3909   2
  -4  11  11 1211.10 88.0844   1
   4  11  11 1264.16 99.0288   9
   4 -11  11 980.182 70.1365   9
   4 -11  11 1066.60 80.7407   5
   4 -11  11 1047.57 92.9291   7
   4 -11  13 1468.27 109.395   1
   4 -11  13 1395.88 88.2515   2
   4  11  13 1576.29 120.063   9
   4 -11  13 1263.53 85.3295   9
   4 -11  13 1389.74 93.5905   5
   4  11  15 94.0272 41.2702   4
   4 -11  15 130.475 32.1635   2
   4  11  15 162.364 50.1121   9
   4 -11  15 134.448 34.8507   9
   4 -11  15 201.194 39.3665   5
   4 -11  17 67.3838 30.2704   2
  -4 -11  17 90.4010 24.6765   5
   4 -11  19 1006.10 80.6565   2
  -4 -11  19 913.319 60.2314   5
   4  12 -18 158.803 69.8462   1
   4 -12 -18 78.0709 31.7596   6
  -4 -12 -18 108.054 27.6301   5
   4  12 -16 1263.30 117.794   8
  -4 -12 -16 1539.39 92.8249   5
   4 -12 -16 1245.28 89.2662   6
  -4  12 -14 1002.40 110.730   3
   4  12 -14 1091.74 110.608   1
  -4 -12 -14 703.911 46.2392   7
   4  12 -14 718.849 91.5646   8
  -4 -12 -14 1013.11 80.5072   5
   4 -12 -14 850.305 73.1325   5
  -4  12 -12 1677.94 103.951   8
   4  12 -12 1509.35 128.995   8
  -4 -12 -12 1496.40 65.6228   7
   4 -12 -12 1734.44 106.386   5
  -4  12 -10 1167.59 87.1911   8
   4  12 -10 1200.50 115.387   8
   4 -12 -10 1072.15 80.6854   9
  -4 -12 -10 1049.01 57.3975   7
   4 -12 -10 1197.97 86.6626   5
  -4  12  -8 1272.19 48.2551   4
   4  12  -8 1538.46 107.452   1
   4  12  -8 1204.94 74.9342   9
   4  12  -8 1064.25 116.901   8
   4 -12  -8 1059.92 74.6666   9
   4 -12  -8 1317.53 92.5365   5
  -4 -12  -8 830.134 57.6337   7
  -4  12  -6 6819.00 149.908   4
   4  12  -6 7169.76 186.361   9
   4 -12  -6 6721.56 190.401   9
   4  12  -4 115.957 15.8985   4
  -4  12  -4 95.1035 15.5569   4
   4  12  -4 86.9175 28.9501   1
  -4  12  -4 101.458 51.0034   1
   4  12  -4 115.439 20.2320   9
   4 -12  -4 108.999 21.0818   9
   4 -12  -4 90.8858 29.7214   5
   4  12  -2 576.955 29.6447   2
  -4  12  -2 647.177 54.8978   2
   4  12  -2 695.105 44.5817   4
  -4  12  -2 637.610 38.5046   4
   4 -12  -2 671.227 68.6954   5
  -4  12   0 8985.98 235.310   2
   4 -12   0 9371.33 239.860   7
   4 -12   0 8660.47 271.258   5
  -4  12   2 595.659 51.4582   2
  -4  12   2 700.910 89.6084   1
   4 -12   2 585.949 63.5768   5
  -4  12   4 137.830 27.2265   2
   4 -12   4 131.828 26.7148   2
   4 -12   4 136.967 34.7972   5
  -4  12   6 6961.03 202.582   2
   4 -12   6 6875.01 232.056   5
   4 -12   6 7076.50 231.860   7
   4  12   8 922.402 92.0834   4
   4 -12   8 1427.53 114.385   1
  -4  12   8 1547.39 113.681   1
  -4  12   8 1260.69 80.2217   2
   4  12   8 1303.17 87.6719   9
   4 -12   8 1144.82 64.8930   9
   4 -12   8 1273.62 92.0278   5
   4 -12   8 1250.48 98.5393   7
   4  12  10 937.427 98.3883   4
  -4  12  10 1634.31 112.766   1
   4 -12  10 1541.72 114.972   1
   4 -12  10 1197.04 80.7044   2
  -4  12  10 1442.97 89.4400   2
   4  12  10 1511.83 104.034   9
   4 -12  10 1255.14 75.2387   9
   4 -12  10 1358.06 93.6021   5
   4 -12  10 1231.66 101.050   7
   4 -12  12 1663.26 95.8419   2
   4 -12  12 1536.48 90.4320   9
   4  12  12 1960.60 128.100   9
   4 -12  12 1776.33 126.181   7
   4 -12  12 1650.40 102.577   5
   4  12  14 694.691 92.9876   4
   4 -12  14 858.046 69.7677   2
   4 -12  14 784.373 70.0073   9
   4 -12  14 872.062 77.1276   5
   4 -12  16 1298.78 89.7651   2
   4 -12  16 1303.18 94.5016   9
   4 -12  16 1403.32 97.3657   5
  -4 -12  16 1196.11 75.6836   5
   4 -12  18 121.383 33.9311   2
  -4 -12  18 90.7628 23.1819   5
   4 -12  18 55.4294 34.8879   6
   4 -12  20 38.6756 25.0910   2
   4  13 -19 58.8536 63.6132   1
  -4 -13 -17 3024.22 135.149   5
   4 -13 -17 2588.32 135.060   6
   4 -13 -15 1323.85 94.6964   5
  -4 -13 -15 1570.32 103.613   5
  -4  13 -13 667.825 90.5455   3
   4  13 -13 795.047 97.4739   1
   4  13 -13 575.328 85.1464   8
  -4  13 -13 589.375 66.6193   8
  -4 -13 -13 506.188 35.9695   7
   4 -13 -13 699.526 71.1185   5
  -4 -13 -13 632.544 68.4447   5
  -4 -13 -11 2172.70 80.7134   7
  -4  13 -11 2498.88 132.590   8
   4  13 -11 2604.10 176.763   8
   4 -13 -11 2598.53 136.573   5
  -4  13  -9 2030.61 128.576   3
   4  13  -9 2062.57 132.683   1
   4  13  -9 1991.70 98.7765   9
  -4  13  -9 1422.98 102.121   8
   4  13  -9 1734.83 146.356   8
  -4 -13  -9 1475.89 72.3295   7
  -4  13  -7 1133.60 46.9769   4
   4  13  -7 1692.32 119.171   1
  -4  13  -7 1720.49 168.895   1
   4  13  -7 1267.91 71.4069   9
   4 -13  -7 1123.84 70.0697   9
   4  13  -7 1155.55 128.774   8
   4 -13  -7 1113.93 91.2549   5
  -4  13  -5 2209.24 70.2049   4
   4  13  -5 2184.97 60.3420   4
  -4  13  -5 1980.66 184.087   1
   4  13  -5 2297.78 87.1069   9
   4 -13  -5 2079.08 85.9241   9
   4  13  -5 1871.14 169.320   8
   4 -13  -5 2363.65 134.116   5
   4  13  -3 2067.52 73.2726   4
  -4  13  -3 2035.41 72.2548   4
   4  13  -3 2102.44 62.0504   2
   4  13  -3 2162.71 73.1075   9
   4 -13  -3 1993.26 73.8604   9
   4 -13  -3 2247.02 130.597   5
   4  13  -1 1627.12 58.1025   2
  -4  13  -1 1819.98 93.5612   2
   4  13  -1 1777.88 81.6276   4
   4 -13  -1 1769.64 113.884   5
  -4  13   1 1533.96 86.0620   2
   4 -13   1 1710.75 111.925   5
   4 -13   1 1704.15 94.7637   7
  -4  13   3 2099.16 102.043   2
   4 -13   3 2266.60 127.968   1
   4 -13   3 2301.99 118.053   7
   4 -13   3 2105.23 124.172   5
  -4  13   5 2460.57 113.231   2
  -4  13   5 3115.55 182.059   1
   4 -13   5 2738.77 152.020   1
   4  13   5 2999.06 110.229   9
   4 -13   5 2297.72 78.5695   9
   4 -13   5 2298.90 132.588   5
   4  13   7 1177.11 100.411   4
   4 -13   7 1494.44 114.454   1
  -4  13   7 1697.43 129.521   1
  -4  13   7 1242.40 82.0481   2
   4  13   7 1413.81 86.4462   9
   4 -13   7 1126.43 60.7902   9
   4 -13   7 1177.13 93.3088   5
   4  13   9 1672.85 127.884   4
   4 -13   9 2238.22 142.400   1
   4 -13   9 1771.46 96.6346   2
  -4  13   9 2261.42 143.044   1
   4  13   9 2028.73 115.971   9
   4 -13   9 1749.09 84.9509   9
   4 -13   9 1976.09 127.011   7
   4  13  11 2227.34 157.727   4
   4 -13  11 2526.30 118.514   2
  -4  13  11 3588.33 174.174   1
   4  13  11 3249.03 158.700   9
   4 -13  11 2514.70 112.429   9
   4 -13  11 2509.49 134.014   5
   4 -13  11 2784.22 158.915   7
   4  13  13 467.785 80.0235   4
   4 -13  13 607.640 59.5316   2
   4 -13  13 551.778 57.3485   9
   4 -13  13 636.983 67.6104   5
   4  13  15 1092.44 119.400   4
   4 -13  15 1375.25 89.1735   2
   4 -13  15 1246.07 90.4214   9
   4 -13  15 1460.23 102.667   5
  -4 -13  15 1356.94 83.6617   5
   4 -13  17 2542.65 125.027   2
  -4 -13  17 2491.61 112.878   5
   4 -13  17 2716.43 138.028   5
   4 -13  19 15.8250 20.8703   2
   4  14 -18 705.455 122.119   1
   4  14 -16 2398.73 196.904   1
  -4 -14 -16 1533.61 103.350   5
   4  14 -14 2986.42 193.802   1
  -4  14 -14 2647.56 176.353   3
  -4  14 -14 2180.63 132.083   8
   4 -14 -14 2469.82 139.380   5
  -4 -14 -14 2573.90 142.022   5
  -4  14 -12 4354.21 211.675   3
  -4 -14 -12 3009.99 90.2728   7
  -4  14 -12 3599.52 165.523   8
   4  14 -12 3465.39 206.505   8
   4 -14 -12 3831.84 173.326   5
  -4 -14 -12 4152.02 182.661   5
  -4  14 -10 985.288 94.2465   3
  -4  14 -10 789.891 77.5374   8
   4  14 -10 770.175 100.990   8
   4 -14 -10 848.875 81.3827   5
  -4 -14 -10 595.060 41.3557   7
   4  14  -8 3866.49 239.073   8
  -4  14  -8 3724.65 173.294   8
  -4  14  -6 11174.1 206.401   4
  -4  14  -6 9230.00 326.874   8
   4  14  -6 9515.20 411.382   8
   4 -14  -6 10771.0 330.391   5
  -4  14  -4 312.460 26.2670   4
   4  14  -4 297.386 23.9238   4
  -4  14  -4 418.960 92.8796   1
   4  14  -4 389.698 29.8769   9
  -4  14  -4 239.569 57.9870   8
   4 -14  -4 319.829 26.7500   9
   4  14  -4 207.160 68.5374   8
   4 -14  -4 252.409 50.2054   5
  -4  14  -2 2152.89 76.3610   4
   4  14  -2 2165.48 82.3795   4
   4  14  -2 1979.90 66.0385   2
  -4  14  -2 2108.56 105.503   2
   4 -14  -2 1881.68 54.1456   9
   4  14  -2 2265.70 60.4293   9
   4 -14  -2 1995.20 127.588   5
  -4  14   0 16880.1 368.956   2
   4  14   0 15169.2 296.889   2
   4  14   0 17066.1 354.602   4
   4 -14   0 15950.4 419.314   5
   4 -14   0 18270.1 377.908   7
  -4  14   2 2136.85 104.626   2
   4 -14   2 1978.49 48.9769   9
   4 -14   2 2043.39 129.075   5
   4 -14   2 2030.66 110.193   7
  -4  14   4 311.197 42.6864   2
   4 -14   4 299.567 48.8664   1
   4  14   4 344.454 33.3222   9
   4 -14   4 286.426 22.4467   9
   4 -14   4 287.807 46.6731   7
   4 -14   4 292.028 51.6350   5
  -4  14   6 10206.3 271.683   2
   4 -14   6 9585.40 259.013   2
  -4  14   6 11896.6 388.143   1
   4 -14   6 10863.2 317.194   1
   4  14   6 11942.1 260.539   9
   4 -14   6 10047.7 213.944   9
   4 -14   6 10369.3 315.244   5
   4 -14   6 9799.54 300.101   7
   4  14   8 3532.15 188.216   4
  -4  14   8 4412.40 166.971   2
   4 -14   8 4321.30 157.338   2
  -4  14   8 5582.79 246.501   1
   4  14   8 4829.20 167.810   9
   4 -14   8 4046.51 127.117   9
   4  14  10 710.283 88.7365   4
  -4  14  10 1018.30 101.525   1
   4 -14  10 758.162 64.8484   2
   4  14  10 926.459 79.5715   9
   4 -14  10 855.526 81.1238   5
   4  14  12 2939.07 190.464   4
   4 -14  12 3510.45 143.453   2
  -4  14  12 4810.18 208.213   1
   4  14  12 4228.58 185.994   9
   4 -14  12 3425.87 137.444   9
   4 -14  12 3814.25 170.936   5
   4 -14  14 2352.11 116.021   2
   4 -14  14 2351.79 118.206   9
   4 -14  16 1447.99 92.1813   2
   4 -14  18 435.336 51.6613   2
   4  15 -15 509.722 103.028   1
  -4  15 -15 409.161 60.8095   8
  -4 -15 -15 499.433 65.7036   5
  -4  15 -13 1009.66 107.249   3
  -4  15 -13 709.167 76.5057   8
  -4 -15 -13 983.323 91.7804   5
  -4  15 -11 982.581 97.2857   3
  -4  15 -11 883.744 84.7094   8
   4  15 -11 900.811 110.032   8
  -4 -15 -11 737.352 37.2653   7
  -4 -15 -11 1043.03 94.1679   5
   4 -15 -11 892.405 85.6537   5
  -4  15  -9 494.477 67.6189   3
   4  15  -9 446.050 73.2783   1
  -4  15  -9 384.208 61.0262   8
   4  15  -9 400.387 79.4907   8
  -4 -15  -9 368.368 34.1343   7
   4 -15  -9 416.787 61.8941   5
  -4  15  -7 944.013 33.0084   4
   4  15  -7 1100.16 106.310   1
  -4  15  -7 979.732 95.3790   8
   4  15  -7 895.577 121.611   8
  -4  15  -5 677.499 36.8427   4
   4  15  -5 671.436 31.5967   3
   4  15  -5 711.838 28.7076   4
  -4  15  -5 810.460 135.573   1
   4  15  -5 915.787 97.7602   1
  -4  15  -5 687.522 87.9340   8
   4  15  -5 657.514 112.292   8
   4 -15  -5 766.985 82.6889   5
   4  15  -3 48.2755 14.2857   4
  -4  15  -3 63.4799 15.7139   4
  -4  15  -3 85.2513 60.2707   1
   4  15  -3 65.2280 38.8306   1
   4  15  -3 51.3131 13.0790   2
  -4  15  -3 75.9212 42.3238   8
   4  15  -3 18.6362 42.7043   8
   4 -15  -3 64.1716 34.8390   5
   4  15  -1 1001.21 48.8640   2
   4  15  -1 1165.48 65.3952   4
  -4  15  -1 1117.63 56.0632   4
   4 -15  -1 1106.47 97.7126   5
  -4  15   1 1109.08 77.3805   2
   4  15   1 1043.46 54.0074   2
   4 -15   1 1153.56 98.7197   5
   4 -15   1 1128.61 81.2745   7
   4 -15   3 35.2323 27.8989   1
   4  15   3 44.1134 28.2900   1
  -4  15   3 58.3807 24.1222   2
   4  15   3 34.0496 23.4807   4
   4 -15   3 39.9752 28.3579   5
   4 -15   3 69.2828 29.5029   7
   4  15   5 524.759 65.5951   4
  -4  15   5 636.271 61.0239   2
   4  15   5 415.607 59.3111   1
   4  15   5 665.274 40.8948   9
   4 -15   5 662.550 76.0899   5
   4 -15   5 587.555 68.7630   7
  -4  15   7 1217.60 125.953   1
   4  15   7 1133.96 67.6110   9
   4 -15   7 992.359 89.8621   7
  -4  15   9 529.806 82.6568   1
   4 -15   9 471.693 50.6711   2
   4  15   9 479.434 52.5870   9
   4 -15   9 445.817 65.7286   7
   4  15  11 991.252 81.8224   9
  -4  15  11 1112.42 113.686   1
   4 -15  11 794.097 66.2863   2
   4  15  13 779.729 101.297   4
   4 -15  13 932.658 72.9429   2
   4 -15  15 383.820 48.6539   2
   4 -15  17 784.806 67.2949   2
  -4  16 -14 54.6510 32.4363   8
  -4  16 -12 341.973 57.6629   8
  -4  16 -12 392.533 70.5133   3
  -4  16 -10 1034.57 94.0105   8
   4  16 -10 1101.60 122.714   8
  -4 -16 -10 979.282 42.5623   7
   4  16  -8 130.711 48.0592   1
   4  16  -8 136.553 54.9240   8
  -4  16  -8 127.455 42.0499   8
  -4 -16  -8 73.8919 20.1458   7
  -4  16  -6 476.330 26.4102   4
   4  16  -6 526.607 101.240   8
  -4  16  -6 415.135 70.1121   8
   4  16  -6 638.513 83.1290   1
   4  16  -4 917.109 40.1129   4
  -4  16  -4 982.937 47.1685   4
   4  16  -4 884.541 132.155   8
  -4  16  -4 776.967 101.782   8
  -4  16  -2 586.228 39.9526   4
   4  16  -2 577.246 41.8052   4
  -4  16  -2 621.396 60.3223   2
   4  16  -2 579.190 37.1260   2
  -4  16  -2 996.254 141.694   1
  -4  16  -2 882.916 105.036   8
   4  16   0 1105.76 55.0944   2
  -4  16   0 2188.27 187.485   1
   4  16   2 620.766 43.8561   2
   4 -16   2 621.087 66.0769   7
  -4  16   4 1158.33 132.961   1
   4  16   4 849.733 78.6480   4
   4 -16   4 1006.31 87.7889   7
   4  16   6 302.365 58.4162   1
   4  16   6 524.907 69.0164   4
   4 -16   6 438.502 62.6613   7
   4  16   8 87.6519 40.2463   1
  -4  16   8 52.2025 45.5005   1
   4  16   8 69.3615 40.2904   4
   4 -16   8 138.295 42.2322   7
   4  16  10 1002.78 107.931   4
  -4  16  10 1554.92 138.875   1
   4  16  10 1385.53 111.672   1
   4 -16  10 1140.95 79.8425   2
   4  16  12 323.004 63.5866   1
   4 -16  12 418.118 51.3183   2
   4 -16  14 42.1710 24.5488   2
   4  16  14 83.3740 40.9985   1
   4  16  16 454.583 71.9600   1
   4 -16  16 517.175 54.6706   2
  -4  17 -13 576.800 72.4640   8
  -4  17 -11 477.426 68.6862   8
  -4  17  -9 1581.83 117.831   3
   4  17  -9 1867.66 148.934   1
  -4  17  -9 1401.12 116.615   8
  -4 -17  -9 1149.24 50.1216   7
   4  17  -7 225.661 76.9875   8
  -4  17  -7 227.950 54.3834   8
  -4  17  -7 419.628 112.520   1
   4  17  -7 241.876 60.5144   1
  -4  17  -5 725.191 50.3321   4
  -4  17  -5 606.299 32.7016   4
   4  17  -5 710.323 35.0434   3
  -4  17  -5 734.079 95.9469   8
   4  17  -5 712.257 119.330   8
   4  17  -5 858.789 97.6805   1
  -4  17  -3 3321.56 97.4387   4
   4  17  -3 3446.37 97.6011   4
  -4  17  -3 3151.20 207.788   8
   4  17  -3 3266.52 247.423   8
   4  17  -1 101.324 20.0908   2
   4  17  -1 150.785 54.0284   1
  -4  17  -1 80.5155 28.6823   2
  -4  17  -1 82.6370 62.6020   1
  -4  17  -1 94.7912 20.2707   4
   4  17   1 133.968 22.9656   2
   4  17   1 131.948 50.8950   1
   4 -17   1 193.532 39.4403   7
   4  17   3 3373.25 115.363   2
   4  17   3 3869.44 161.769   4
   4 -17   3 3578.32 165.707   7
   4  17   5 644.124 82.0811   1
   4  17   5 736.564 77.7136   4
   4 -17   5 735.172 80.6902   7
  -4  17   7 251.896 77.6774   1
   4  17   7 213.794 51.1347   4
   4 -17   7 180.848 47.9765   7
   4  17   9 1483.36 125.060   4
   4  17   9 1548.36 126.817   1
   4  17  11 539.579 85.2340   4
  -4  17  11 728.567 106.083   1
   4 -17  13 496.502 53.9760   2
   4  17  13 678.311 87.4337   1
   4 -17  15 358.564 47.1682   2
  -4  18 -12 167.548 48.4835   8
  -4  18 -10 1020.26 97.8944   8
  -4 -18  -8 569.697 35.6842   7
  -4  18  -8 559.836 77.2470   8
  -4 -18  -8 387.685 32.2824   7
  -4  18  -6 64.6780 44.5557   8
  -4  18  -4 1430.92 53.9863   4
  -4  18  -4 1376.86 75.3733   4
   4  18  -4 1312.76 41.3625   4
   4  18  -4 1263.39 159.680   8
  -4  18  -4 1318.35 137.139   8
   4  18  -2 751.567 46.7514   4
  -4  18  -2 908.588 49.8887   4
  -4  18  -2 801.448 111.508   8
   4  18  -2 690.320 120.873   8
   4  18  -2 1111.20 115.482   1
   4  18  -2 953.836 51.6358   2
   4  18   0 6.86549 13.7271   2
   4  18   0 35.8110 40.7848   1
  -4  18   0 15.3024 15.3117   4
   4  18   2 773.481 52.0418   2
   4  18   2 805.292 68.3886   4
   4 -18   2 835.565 78.2815   7
   4  18   4 1509.97 78.5954   2
   4  18   4 1735.46 111.706   4
   4 -18   4 1660.68 116.223   7
  -4  18   6 52.6624 58.6358   1
   4  18   6 26.8028 32.4598   4
   4 -18   6 16.3499 33.2068   7
   4  18   8 488.889 73.8824   4
  -4  18   8 646.391 111.099   1
  -4  18  12 225.516 75.3129   1
  -4  19  -9 669.811 86.2456   8
  -4  19  -7 2675.75 176.898   8
  -4  19  -5 1193.19 126.533   8
  -4  19  -3 516.947 50.7127   4
   4  19  -3 606.781 33.1581   4
  -4  19  -3 598.705 37.2852   4
  -4  19  -1 2494.51 89.2595   4
  -4  19  -1 2172.06 183.180   8
   4  19  -1 2330.88 88.3021   2
   4  19   1 2372.22 93.7262   2
   4  19   1 2482.56 111.417   4
   4  19   3 500.862 45.2710   2
   4  19   3 586.506 62.1131   4
   4 -19   3 558.556 70.5085   7
   4  19   5 1469.39 81.3637   2
   4  19   5 1536.08 110.245   4
   4 -19   5 1506.36 117.860   7
   4  19   7 2827.56 166.494   4
  -4  19   7 4648.88 289.898   1
  -4  19   9 1087.36 143.656   1
  -4  19  11 650.741 115.888   1
  -4  20  -6 1010.71 113.567   8
  -4  20  -4 1336.46 142.560   8
  -4 -20  -2 1475.03 85.3103   7
  -4  20  -2 1123.21 139.439   8
  -4  20   0 1201.07 62.9731   4
  -4  20   0 1168.76 94.9394   4
  -4 -20   0 1255.31 82.9434   7
   4  20   2 1152.84 66.3323   2
  -4  20   2 1169.44 109.229   4
   4  20   2 1223.60 81.8515   4
   4  20   4 1555.76 82.3819   2
   4  20   4 1657.79 106.290   4
   4 -20   4 1467.56 116.695   7
   4  20   6 1077.53 96.9942   4
  -4  20   8 679.660 131.835   1
  -4  20  10 2367.29 213.261   1
  -4  21   3 18.2976 36.4516   4
   4  21   3-1.78018 23.3857   4
  -4  21   5 210.936 62.5787   4
   4  21   5 145.908 39.9188   4
   5   0 -19 1746.84 145.427   9
  -5   0 -17 2250.00 121.903   7
   5   0 -17 2306.04 159.847   9
  -5   0 -17 2382.71 62.0918   5
  -5   0 -15 2286.27 113.365   7
   5   0 -15 2568.40 154.039   9
  -5   0 -15 2407.54 71.3162   5
  -5   0 -13 6031.56 137.518   5
  -5   0 -11 4882.26 210.200   4
  -5   0  -9 4984.05 189.188   4
  -5   0  -7 17551.5 371.362   4
  -5   0  -7 15322.4 310.076   6
  -5   0  -5 9364.12 260.003   3
  -5   0  -5 8681.31 216.874   4
  -5   0  -3 1773.37 78.5667   4
  -5   0  -3 1831.71 94.8061   3
   5   0  -3 1929.01 61.4501   2
   5   0  -3 2052.49 62.5939   8
  -5   0  -3 1679.26 80.3328   6
  -5   0  -1 23656.5 426.989   4
   5   0  -1 24405.4 413.220   2
   5   0  -1 25031.5 397.628   8
  -5   0   1 22385.1 397.475   4
  -5   0   3 1610.82 64.1248   4
  -5   0   3 1749.11 62.0358   2
  -5   0   3 1753.08 80.8366   8
  -5   0   3 1781.76 86.6861   6
  -5   0   5 8797.95 190.204   4
  -5   0   5 9452.91 181.753   2
  -5   0   5 9907.70 217.258   8
  -5   0   5 8682.02 222.639   6
  -5   0   7 14976.8 270.554   2
  -5   0   7 15451.9 314.195   8
  -5   0   7 14667.7 316.285   6
   5   0   9 4713.70 162.157   4
  -5   0   9 4696.05 145.028   6
   5   0  11 3845.95 152.593   4
  -5   0  11 4032.75 143.219   8
   5   0  13 5719.92 201.467   4
  -5   0  13 6262.19 194.612   8
  -5   0  13 5761.72 153.233   5
   5   0  15 2548.50 156.181   3
   5   0  15 2893.90 138.852   4
  -5   0  15 2646.40 128.711   8
  -5   0  15 2366.41 80.2400   5
   5   0  15 3184.61 164.126   7
   5   0  17 2008.45 144.491   3
   5   0  17 2223.51 134.838   1
   5   0  17 2314.07 101.902   8
  -5   0  17 2382.05 130.031   8
   5   0  17 2557.03 147.398   9
  -5   0  17 2082.67 64.4631   5
   5   0  19 2283.13 131.260   4
   5   0  19 2047.19 149.181   3
   5   0  19 1893.71 123.539   1
   5   0  19 1950.37 101.899   8
  -5   0  19 2197.79 112.060   7
   5   0  19 2334.08 156.140   7
   5   0  21 2117.61 129.379   4
   5   0  21 1686.77 139.565   3
   5   0  21 1812.64 122.981   1
   5   0  23 1618.87 115.133   4
   5  -1 -20 119.587 50.4191   9
   5   1 -20 64.7134 42.3963   9
   5  -1 -18 1542.48 134.673   9
   5   1 -18 1602.80 135.458   9
   5  -1 -16 4066.42 206.749   9
  -5   1 -16 4091.72 165.722   7
  -5  -1 -16 4153.24 160.732   7
   5   1 -16 4071.17 204.351   9
  -5  -1 -16 4104.02 94.9015   5
  -5   1 -16 4283.08 102.879   5
  -5  -1 -14 2550.00 113.773   7
  -5   1 -14 2510.14 115.502   7
  -5  -1 -14 2191.33 71.0379   5
  -5   1 -14 2513.93 76.8574   5
   5   1 -12 2827.79 89.7101   1
  -5   1 -12 5851.33 226.971   4
  -5   1 -10 7990.32 181.348   5
  -5  -1 -10 8234.29 190.098   6
  -5   1  -8 10522.4 261.761   4
  -5  -1  -8 10750.3 283.572   4
  -5  -1  -8 8604.38 209.255   6
  -5   1  -8 8734.98 196.891   5
  -5  -1  -8 8531.90 217.396   7
  -5  -1  -6 12721.6 304.189   4
  -5   1  -6 12756.9 283.192   4
  -5   1  -6 13344.9 342.527   3
   5   1  -6 12895.4 263.385   8
  -5   1  -4 5270.82 176.711   3
  -5   1  -4 4967.73 144.309   4
  -5  -1  -4 5181.75 154.600   4
  -5  -1  -4 5357.42 181.570   3
   5   1  -4 5282.98 134.075   8
  -5  -1  -4 4601.60 154.376   6
  -5   1  -4 4520.42 133.399   6
  -5   1  -2 10471.5 225.349   4
  -5  -1  -2 10606.4 236.108   4
   5   1  -2 10500.8 217.554   4
   5  -1  -2 10481.6 210.291   2
   5   1  -2 11258.2 203.048   2
  -5  -1  -2 10998.8 258.729   3
   5   1  -2 10410.9 224.418   8
  -5   1  -2 10609.7 234.823   6
  -5  -1  -2 10027.4 261.352   6
  -5  -1   0 19584.9 354.883   4
   5   1   0 19521.1 353.512   4
   5  -1   0 19285.5 351.366   2
   5   1   0 19699.4 349.984   2
   5   1   0 18905.5 376.087   8
   5  -1   2 8731.96 205.385   4
  -5   1   2 10238.6 206.429   4
  -5  -1   2 10035.0 205.811   4
  -5   1   2 10417.7 206.050   2
  -5   1   2 9181.21 202.388   8
  -5   1   2 10011.5 229.292   6
  -5  -1   2 9307.62 256.946   6
   5   1   4 3890.36 134.939   4
   5  -1   4 4515.24 134.823   4
  -5   1   4 4960.54 127.570   4
  -5  -1   4 5177.11 128.162   4
  -5   1   4 5456.63 125.982   2
  -5  -1   4 4570.31 111.936   2
  -5   1   4 5171.53 127.873   8
  -5  -1   4 5437.14 174.637   8
  -5   1   4 5059.68 146.321   6
  -5  -1   4 4981.57 171.310   6
  -5  -1   6 11347.6 232.755   4
  -5   1   6 12294.2 231.600   2
  -5  -1   6 11986.3 217.647   2
  -5   1   6 12136.6 242.532   8
  -5  -1   6 12834.3 289.453   8
  -5  -1   6 10929.7 285.339   6
  -5   1   6 11187.9 252.523   6
   5  -1   8 9250.12 237.783   4
  -5   1   8 10012.2 205.235   2
  -5  -1   8 9673.48 193.470   2
  -5   1   8 9788.03 220.060   8
  -5  -1   8 8858.06 241.167   6
   5  -1  10 9222.02 244.980   4
  -5   1  10 8859.22 222.942   8
  -5  -1  10 9769.80 254.545   8
   5  -1  10 9174.24 193.383   8
   5   1  12 4361.49 173.115   4
   5  -1  12 4480.36 161.440   4
  -5   1  12 4669.50 151.698   8
  -5  -1  12 4876.62 174.948   8
  -5   1  12 4309.14 124.963   5
  -5  -1  12 4108.62 133.340   6
   5  -1  14 2484.22 148.990   3
  -5  -1  14 2212.64 85.9936   5
   5   1  14 2359.42 127.834   4
   5  -1  14 2754.35 127.304   4
  -5   1  14 2592.25 116.037   8
  -5  -1  14 2795.04 135.165   8
  -5   1  14 2273.36 80.2875   5
   5  -1  14 3098.15 156.151   7
   5   1  16 4595.34 188.990   4
   5  -1  16 4576.60 212.941   3
   5   1  16 4343.32 212.267   3
   5  -1  16 4887.38 202.587   1
   5  -1  16 4385.84 146.355   8
   5   1  16 5094.57 208.023   9
  -5   1  16 4510.28 170.535   8
  -5  -1  16 4780.16 191.621   8
   5  -1  16 4937.12 200.375   9
  -5   1  16 4126.46 108.195   5
  -5  -1  16 4058.87 112.781   5
   5  -1  18 1771.66 109.034   4
   5  -1  18 1402.44 119.955   3
   5  -1  18 1643.73 112.095   1
   5   1  18 1330.73 121.266   3
   5  -1  18 1427.86 86.7230   8
  -5   1  18 1625.88 92.7417   7
   5   1  18 1360.37 79.0599   8
  -5  -1  18 1269.35 43.3337   5
   5   1  20 82.8686 34.4587   4
   5  -1  20 69.9214 29.6859   4
  -5   1  20 103.157 30.2218   7
  -5  -1  20 130.612 33.7479   7
   5   1  20 67.0659 31.0863   1
   5  -1  20 86.5088 33.0982   1
   5   1  20 130.198 46.2967   3
   5  -1  20 90.7493 36.8735   3
   5  -1  22 1548.54 106.083   4
   5   1  22 1501.11 114.044   4
   5   1  22 1371.24 106.814   1
  -5  -1  24 327.712 53.4613   3
   5  -2 -19 975.794 111.716   9
   5   2 -19 973.269 106.055   9
   5  -2 -17 448.915 74.6565   9
   5   2 -17 525.797 76.2578   9
  -5  -2 -17 494.889 23.1291   5
   5   2 -15 347.274 59.8489   9
   5  -2 -15 314.451 57.3629   9
  -5   2 -15 351.800 46.9955   7
  -5  -2 -15 296.632 41.4813   7
  -5  -2 -15 294.562 23.1612   5
  -5   2 -15 346.341 27.9131   5
  -5   2 -13 2937.88 123.980   7
  -5   2 -13 2741.74 83.9942   5
  -5  -2 -11 289.225 60.5077   4
  -5   2 -11 302.918 49.3185   4
  -5   2  -9 260.617 51.7022   3
  -5  -2  -9 276.750 49.9203   4
  -5   2  -9 210.614 37.2640   4
  -5  -2  -9 187.758 28.3485   6
  -5   2  -9 191.520 22.4514   5
  -5  -2  -9 203.106 28.3558   7
  -5   2  -7 4441.60 143.794   4
  -5  -2  -7 4350.29 169.587   4
  -5   2  -7 4426.67 190.106   3
   5   2  -7 4404.96 139.251   8
  -5   2  -7 3905.02 114.466   5
  -5  -2  -7 3770.76 141.762   6
  -5  -2  -7 3814.74 128.567   7
  -5   2  -5 606.189 60.4738   3
  -5  -2  -5 761.740 60.0312   4
  -5   2  -5 701.978 49.0018   4
   5   2  -5 639.666 47.5432   8
  -5   2  -5 504.748 38.7028   5
   5  -2  -5 572.889 52.8809   6
  -5   2  -3 1713.45 70.7039   4
  -5  -2  -3 1717.28 82.1331   4
  -5  -2  -3 1682.50 92.7392   3
   5  -2  -3 1873.80 66.1642   2
   5   2  -3 1854.05 52.5640   2
   5   2  -3 1631.41 80.5860   8
  -5   2  -3 1639.00 70.3266   5
   5  -2  -3 1845.72 92.6753   6
  -5   2  -3 1634.74 73.8523   7
  -5   2  -1 3096.67 94.7589   4
  -5  -2  -1 2791.19 100.245   4
   5   2  -1 2925.88 93.6130   4
   5  -2  -1 2889.50 91.9438   2
   5   2  -1 2994.41 84.2483   2
  -5  -2  -1 3052.17 110.443   3
   5  -2  -1 3010.15 121.832   6
  -5   2   1 2932.20 93.2021   2
   5  -2   1 2528.47 94.3894   2
  -5  -2   1 2651.95 90.0488   4
  -5  -2   1 2621.77 91.8262   3
   5  -2   1 2377.03 83.9654   4
  -5   2   1 3051.49 91.1368   4
   5   2   1 2573.15 93.1722   4
   5  -2   1 3078.52 120.989   6
  -5   2   3 1797.27 68.6880   4
   5  -2   3 1663.26 70.8554   4
  -5   2   3 1658.39 74.2628   5
  -5  -2   3 1864.50 70.1720   4
  -5   2   3 1821.83 68.6796   2
  -5   2   3 1957.39 57.7251   8
   5  -2   3 2011.92 98.7483   6
   5   2   5 649.837 63.8091   3
  -5  -2   5 816.276 44.1791   4
   5  -2   5 706.951 47.5693   4
  -5   2   5 819.419 44.0530   2
  -5  -2   5 743.439 34.1632   2
  -5   2   5 861.453 40.9704   8
   5  -2   5 857.082 34.5690   8
  -5  -2   5 838.055 73.4565   8
  -5   2   5 661.024 47.5155   5
   5  -2   5 1042.01 71.3154   6
  -5  -2   7 3453.16 103.598   4
   5  -2   7 3520.43 120.163   4
  -5  -2   7 3056.16 83.4120   2
  -5   2   7 3939.66 109.663   2
  -5   2   7 3739.52 105.056   8
   5  -2   7 3935.46 96.3126   8
  -5  -2   7 4139.58 164.209   8
   5  -2   7 4226.12 156.982   6
  -5   2   7 3521.11 114.584   5
   5  -2   9 252.909 33.3505   4
  -5   2   9 242.311 27.6255   8
   5  -2   9 252.014 25.0609   8
  -5  -2   9 313.530 45.7888   8
  -5  -2   9 205.753 36.5253   6
  -5   2   9 276.123 30.1146   5
   5  -2   9 255.760 41.8029   7
   5  -2  11 368.834 42.5228   4
   5   2  11 224.464 40.6794   4
  -5   2  11 290.036 32.9378   8
  -5  -2  11 311.053 46.6539   8
   5  -2  11 357.452 50.9007   7
   5  -2  13 2722.18 151.100   3
   5   2  13 2693.41 140.044   4
  -5   2  13 2890.49 115.773   8
  -5  -2  13 3188.72 150.575   8
  -5  -2  13 2915.92 114.179   6
  -5   2  13 2862.30 95.2127   5
   5  -2  15 401.970 61.4458   3
   5   2  15 436.768 58.7209   4
   5   2  15 345.885 62.6331   3
   5  -2  15 426.919 60.6878   1
  -5   2  15 379.345 44.9687   8
   5  -2  15 348.049 39.8165   8
  -5  -2  15 342.968 53.5217   8
  -5   2  15 348.217 28.5196   5
   5  -2  15 452.930 64.4983   7
  -5  -2  15 347.061 34.5912   6
   5  -2  17 542.898 58.2016   4
   5  -2  17 489.004 68.9393   3
   5   2  17 566.157 70.6165   4
   5  -2  17 539.045 66.7866   1
   5   2  17 449.060 74.7017   3
  -5   2  17 486.933 55.2346   8
   5  -2  17 511.224 52.4830   8
  -5   2  17 553.406 51.6507   7
  -5  -2  17 536.282 69.5104   8
   5  -2  17 569.805 68.9016   9
  -5  -2  17 444.215 32.4512   5
  -5   2  17 493.700 27.6889   5
   5  -2  17 671.668 81.2961   7
   5  -2  19 925.056 95.8241   3
   5  -2  19 856.408 74.9007   4
   5  -2  19 971.627 77.3159   8
  -5  -2  19 908.189 74.7057   7
  -5   2  19 1064.56 74.5432   7
   5  -2  19 998.027 89.5293   1
   5   2  19 710.515 91.2420   3
   5   2  21 462.684 67.9281   4
   5  -2  21 511.754 59.5971   4
  -5   2  21 546.247 56.3709   7
   5  -2  21 363.679 53.3816   1
  -5  -2  21 327.716 47.8510   3
   5  -2  23 745.192 72.7654   4
  -5  -2  23 495.673 59.9594   3
   5  -3 -20 264.820 64.1983   9
   5   3 -20 284.191 64.3832   9
   5   3 -18 50.7912 35.4644   9
   5  -3 -18 36.0612 36.6358   9
  -5  -3 -18 26.6321 23.1046   7
  -5   3 -16 1411.73 95.8867   7
   5  -3 -16 1360.63 121.661   9
   5   3 -16 1527.70 120.754   9
  -5  -3 -16 1451.86 51.4327   5
   5   3 -14 124.692 30.4437   1
  -5   3 -14 155.581 33.4132   7
   5  -3 -14 140.149 39.5804   9
   5   3 -14 123.374 37.4621   9
  -5   3 -14 161.440 21.4206   5
  -5  -3 -14 136.026 20.1629   6
  -5   3 -12 891.664 83.3913   4
   5   3 -12 958.040 57.1398   1
   5   3 -12 696.083 71.7135   9
  -5  -3 -12 783.409 51.3002   6
  -5   3 -10 3173.07 174.223   3
  -5   3 -10 2930.80 132.652   4
  -5  -3 -10 3474.34 183.268   4
  -5  -3 -10 2715.74 112.494   6
  -5   3 -10 2278.38 83.0232   5
  -5  -3 -10 2541.85 101.557   7
  -5   3  -8 682.997 55.3120   4
  -5  -3  -8 694.702 71.7094   4
  -5   3  -8 718.885 76.5706   3
   5   3  -8 637.184 53.7145   8
   5  -3  -8 676.733 57.0144   6
  -5  -3  -8 550.432 45.9935   7
  -5   3  -8 546.489 39.2428   5
  -5   3  -6 5622.99 154.169   4
  -5  -3  -6 5559.02 193.787   4
  -5   3  -6 6130.38 205.251   3
   5   3  -6 4897.58 163.608   8
   5  -3  -6 5513.46 168.563   6
  -5   3  -6 4646.34 129.328   5
  -5  -3  -6 4541.04 146.652   7
  -5  -3  -4 459.633 46.6740   4
  -5   3  -4 488.526 38.4310   4
   5   3  -4 406.394 45.1373   8
   5  -3  -4 453.999 44.8962   6
  -5   3  -4 426.018 34.8502   5
  -5   3  -2 416.074 32.1831   4
   5   3  -2 389.192 30.9762   4
  -5  -3  -2 363.497 37.3330   4
   5   3  -2 378.423 23.2319   2
   5  -3  -2 328.185 28.5144   2
   5   3  -2 293.643 45.1747   8
   5  -3  -2 394.175 42.0260   6
  -5   3  -2 331.943 31.1742   5
   5  -3   0 12735.9 262.573   2
  -5  -3   0 11296.1 269.721   3
  -5   3   0 13836.4 272.538   2
  -5  -3   0 13051.3 272.677   4
  -5   3   0 13254.8 255.444   4
   5   3   0 12518.4 267.373   4
   5  -3   0 15303.7 310.745   6
   5  -3   2 465.601 34.5466   4
  -5  -3   2 586.705 39.7054   4
   5   3   2 384.413 36.8574   4
   5   3   2 489.435 45.6557   3
  -5   3   2 529.840 35.4579   4
  -5  -3   2 491.650 32.8207   3
  -5   3   2 552.612 38.7002   2
  -5   3   2 492.535 21.4423   8
  -5   3   2 482.022 38.9337   5
   5  -3   2 535.951 48.7205   6
  -5  -3   4 489.562 35.2364   4
   5  -3   4 432.009 34.6401   4
  -5   3   4 491.481 35.9375   2
   5   3   4 417.003 49.4812   3
   5  -3   4 502.186 35.7256   8
  -5   3   4 446.412 37.6737   5
   5  -3   4 551.828 50.1231   6
  -5  -3   6 5620.04 138.223   4
   5  -3   6 5575.67 154.031   4
  -5  -3   6 5553.87 114.215   2
   5   3   6 5211.11 200.013   3
  -5   3   6 5791.32 144.710   2
  -5  -3   6 6160.98 228.935   8
   5  -3   6 6246.04 144.126   8
  -5   3   6 5052.13 146.574   5
   5  -3   6 6359.77 184.837   6
   5  -3   8 612.519 46.5361   4
  -5  -3   8 595.583 38.1199   4
  -5   3   8 584.544 41.2933   2
  -5  -3   8 647.068 73.0543   8
  -5   3   8 564.403 37.7744   8
   5  -3   8 709.639 60.5664   6
  -5   3   8 528.066 40.0565   5
   5  -3   8 711.010 63.5367   7
   5  -3  10 2348.98 100.715   4
  -5  -3  10 2833.74 151.356   8
  -5   3  10 2391.34 89.8181   8
   5  -3  10 3009.21 140.817   7
   5   3  12 757.974 73.8712   4
   5  -3  12 1090.83 92.1172   1
  -5   3  12 832.119 55.5346   8
  -5  -3  12 976.696 89.6229   8
  -5   3  12 856.182 49.6084   5
  -5  -3  12 699.378 64.2532   6
   5  -3  12 1061.21 88.9569   7
   5   3  14 90.6094 33.0353   4
   5  -3  14 122.769 27.4016   4
  -5   3  14 77.6762 21.8203   8
   5  -3  14 111.424 25.8763   8
  -5  -3  14 118.326 41.1332   8
  -5   3  14 115.503 19.0286   5
  -5  -3  14 104.713 25.2011   6
   5  -3  14 101.396 35.9703   7
   5  -3  16 1631.22 93.7390   4
   5   3  16 1309.45 105.172   4
   5  -3  16 1562.99 111.188   1
   5   3  16 1246.84 117.484   3
  -5   3  16 1345.89 84.0066   8
   5   3  16 1702.95 120.619   9
   5  -3  16 1423.20 102.717   9
   5  -3  16 1385.72 88.3069   8
  -5  -3  16 1416.62 115.616   8
   5  -3  16 1693.45 125.158   7
  -5   3  16 1352.35 54.6815   5
  -5  -3  16 1230.51 66.3384   6
   5   3  18 52.1337 32.6364   4
  -5  -3  18 52.6703 13.7552   5
   5  -3  18 54.1613 24.1542   4
  -5   3  18 55.8183 23.0152   7
   5  -3  18 52.2406 27.0477   8
   5  -3  18 63.3604 29.6209   1
   5   3  18 45.9287 38.9503   3
   5  -3  20 241.918 42.2323   4
  -5   3  20 202.370 35.3741   7
   5  -3  20 182.591 38.8142   1
   5   3  20 190.500 55.0366   3
  -5  -3  20 200.043 37.4634   3
   5  -3  22 368.471 50.6466   4
  -5   3  22 294.214 43.9001   7
   5   3  22 155.380 42.4797   1
  -5  -3  22 173.094 36.1321   3
  -5  -3  24 2.54738 27.7347   4
   5  -3  24 5.52366 20.3014   4
   5  -4 -19 573.458 87.2173   9
   5   4 -19 686.767 89.9810   9
   5  -4 -17 359.020 67.8070   9
  -5  -4 -17 389.155 48.8725   7
   5   4 -17 427.371 69.2157   9
  -5  -4 -17 418.470 25.1700   5
   5   4 -15 556.432 60.1296   1
   5   4 -15 482.230 69.7622   9
  -5   4 -15 509.332 57.9489   7
   5  -4 -15 443.327 69.8976   9
  -5  -4 -15 605.251 39.7109   6
  -5   4 -15 555.625 39.8747   5
   5   4 -13 1951.92 122.832   9
   5  -4 -13 1841.78 124.943   9
  -5  -4 -13 1762.13 84.8022   6
  -5   4 -13 2036.56 77.9982   5
  -5   4 -11 58.2532 25.6791   4
   5   4 -11 66.7778 24.5221   8
   5  -4 -11 41.2126 24.9687   9
  -5  -4  -9 219.104 49.9239   4
  -5   4  -9 204.273 33.0565   4
  -5   4  -9 199.082 47.4954   3
   5   4  -9 205.681 25.0606   1
   5   4  -9 201.940 35.2374   8
   5  -4  -9 133.321 27.8559   6
  -5   4  -9 152.087 21.8696   5
  -5  -4  -9 124.267 22.7654   7
  -5  -4  -7 2444.66 134.342   4
  -5   4  -7 2622.89 100.492   4
  -5   4  -7 2724.67 140.076   3
   5   4  -7 2206.17 111.210   8
  -5   4  -7 2198.78 83.6400   5
   5  -4  -7 2388.93 105.422   6
  -5  -4  -7 2123.25 93.2500   7
  -5   4  -5 168.135 23.3410   4
  -5  -4  -5 150.486 33.2992   4
   5  -4  -5 163.682 28.2358   1
   5   4  -5 125.505 30.9601   8
   5  -4  -5 162.141 28.4904   6
  -5   4  -5 161.976 23.5573   5
  -5  -4  -3 714.155 57.0086   4
   5   4  -3 749.615 41.9453   4
  -5   4  -3 721.681 43.6208   4
   5   4  -3 818.355 26.6323   2
   5  -4  -3 995.288 68.4636   1
   5   4  -3 606.540 66.5835   8
  -5   4  -3 569.497 42.9294   5
   5  -4  -3 744.160 56.4601   6
  -5   4  -3 585.948 43.0140   7
   5  -4  -1 450.632 37.2677   2
   5  -4  -1 660.219 58.1190   1
  -5  -4  -1 473.784 42.0870   4
  -5   4  -1 541.380 35.7701   4
   5   4  -1 566.272 39.8047   4
  -5   4  -1 476.687 36.9497   7
   5  -4  -1 604.430 49.8592   6
  -5   4   1 602.297 42.4654   2
   5   4   1 467.042 39.9712   4
  -5   4   1 585.245 37.6447   4
  -5  -4   1 529.247 40.7928   4
   5   4   1 433.982 42.5081   3
   5  -4   1 535.922 47.5136   6
  -5   4   3 750.131 45.3496   2
   5   4   3 624.482 56.9331   3
  -5  -4   3 780.048 36.4272   3
   5  -4   3 613.252 39.5722   4
  -5  -4   3 707.604 43.1201   4
  -5   4   3 602.890 44.3056   5
   5  -4   3 757.423 56.8254   6
   5  -4   5 200.966 24.7300   4
  -5  -4   5 217.889 23.4432   4
  -5   4   5 186.407 24.2264   2
   5   4   5 208.103 40.8257   3
   5  -4   5 224.004 32.6362   8
   5  -4   5 220.393 32.2849   6
  -5   4   5 166.175 24.4476   5
  -5  -4   7 2548.87 83.5738   4
   5  -4   7 2546.12 92.1852   4
   5   4   7 2325.55 135.971   3
  -5   4   7 2605.28 94.3339   2
  -5  -4   7 2694.69 158.120   8
   5  -4   7 3051.71 122.069   6
   5  -4   7 2971.06 130.273   7
  -5   4   7 2381.79 94.4070   5
   5  -4   9 221.235 29.0326   4
  -5  -4   9 218.194 16.3696   2
  -5  -4   9 186.604 49.3617   8
   5  -4   9 252.130 37.7279   6
  -5   4   9 199.784 26.3555   5
   5  -4   9 176.183 37.1600   7
   5  -4  11 72.2763 30.2635   1
  -5  -4  11 46.5376 31.6631   8
   5  -4  11 48.4349 23.7111   6
  -5   4  11 56.6872 16.6592   5
   5  -4  11 73.1443 28.6716   7
   5  -4  13 1925.68 92.4988   4
   5   4  13 1677.50 115.647   4
   5  -4  13 2196.12 129.261   1
  -5  -4  13 2235.43 151.107   8
   5  -4  13 2347.11 111.015   8
  -5   4  13 1984.89 89.4275   8
  -5   4  13 1877.79 78.2230   5
   5  -4  13 2382.96 138.389   7
   5  -4  13 2551.45 129.448   6
   5  -4  15 561.678 51.0247   4
   5   4  15 510.124 67.3890   4
   5   4  15 532.494 78.6193   3
  -5   4  15 496.968 48.8661   8
   5  -4  15 668.179 63.7210   8
   5   4  15 723.259 78.8719   9
   5  -4  15 535.335 61.1573   9
  -5  -4  15 609.473 83.6791   8
  -5  -4  15 551.008 55.6656   6
  -5   4  15 505.736 36.0641   5
   5  -4  15 747.354 83.2467   7
   5  -4  17 466.243 49.5135   4
   5   4  17 390.801 62.7693   4
   5   4  17 357.422 70.3468   3
   5  -4  17 406.156 58.3134   1
  -5  -4  17 339.761 40.1723   3
  -5   4  17 393.949 47.8578   8
   5  -4  17 476.062 57.2145   8
   5  -4  17 368.566 56.5990   9
  -5   4  17 429.754 43.3914   7
  -5  -4  17 389.287 38.9994   6
   5  -4  17 520.109 74.6925   7
   5   4  19 466.208 70.2175   4
   5  -4  19 638.473 59.1849   4
   5   4  19 430.892 75.5728   3
  -5  -4  19 458.363 47.7783   3
   5  -4  19 470.684 59.8221   1
   5  -4  19 552.228 66.0283   8
  -5  -4  19 524.817 29.1154   5
  -5  -4  19 433.778 30.3625   5
   5  -4  21 543.560 56.2507   4
  -5   4  21 508.354 52.3465   7
  -5  -4  21 404.746 48.5593   3
  -5  -4  23 458.138 51.6975   3
   5  -4  23 547.769 56.6135   4
  -5  -4  23 414.229 59.3065   4
   5  -5 -18 319.699 66.0619   9
  -5  -5 -18 290.326 45.0695   7
   5   5 -18 298.021 61.2542   9
  -5  -5 -18 256.617 17.7453   5
  -5  -5 -18 305.883 20.8847   5
   5   5 -16 2182.10 129.583   1
  -5  -5 -16 2158.64 108.132   7
   5  -5 -16 2082.43 151.600   9
   5   5 -16 2326.03 147.982   9
  -5  -5 -16 2189.45 81.9402   6
   5   5 -14 1657.60 96.6484   1
  -5   5 -14 1597.63 98.2865   7
   5  -5 -14 1450.37 116.675   9
   5   5 -14 1520.38 111.826   9
  -5  -5 -14 1328.94 77.5577   6
  -5   5 -14 1665.01 73.9413   5
   5   5 -12 3477.87 156.531   8
   5  -5 -12 3263.51 163.646   9
   5   5 -12 3608.38 161.222   9
   5  -5 -12 3544.36 140.707   6
   5   5 -10 3513.82 123.617   1
  -5   5 -10 3132.19 171.427   3
   5   5 -10 2114.50 118.198   8
  -5  -5 -10 2140.61 94.8253   7
  -5   5 -10 2154.68 87.1188   5
  -5   5  -8 6262.45 168.240   4
  -5  -5  -8 6848.40 256.589   4
  -5   5  -8 6934.99 239.499   3
   5   5  -8 4883.58 191.164   8
   5  -5  -8 6078.60 181.450   6
  -5   5  -8 5304.68 148.939   5
  -5  -5  -8 5340.13 160.789   7
  -5  -5  -6 12450.5 345.012   4
  -5   5  -6 15294.5 357.167   3
  -5   5  -6 14326.2 274.508   4
   5  -5  -6 11710.9 260.088   1
   5   5  -6 12029.0 331.792   8
  -5   5  -6 12381.8 269.170   5
   5  -5  -6 13494.7 298.377   6
  -5   5  -4 787.320 46.1639   4
  -5  -5  -4 711.123 64.4110   4
   5   5  -4 723.865 39.4310   4
   5  -5  -4 828.266 57.5648   1
   5   5  -4 632.765 70.6573   8
  -5   5  -4 677.143 30.3604   8
  -5   5  -4 597.756 43.0484   7
  -5   5  -4 597.865 43.5122   5
   5  -5  -4 720.419 56.1624   6
  -5  -5  -2 3539.93 133.117   4
  -5   5  -2 3679.55 105.790   4
   5   5  -2 3804.30 108.939   4
   5   5  -2 3795.91 83.6703   2
   5   5  -2 3301.88 170.292   8
  -5   5  -2 3154.55 83.5604   8
  -5   5  -2 3628.56 110.182   7
  -5   5   0 29652.6 517.299   2
  -5   5   0 29050.6 493.150   4
  -5  -5   0 29540.2 525.983   4
  -5   5   0 28454.8 497.506   7
  -5   5   2 3599.63 112.893   2
   5   5   2 3309.26 131.084   3
  -5  -5   2 3621.90 111.044   4
  -5   5   4 828.922 50.1533   2
   5   5   4 936.380 75.4059   3
   5  -5   4 765.645 43.5446   4
  -5  -5   4 824.622 46.5916   4
  -5   5   4 760.535 50.1089   5
   5   5   6 12888.7 358.457   3
  -5   5   6 12953.8 277.594   2
  -5  -5   6 12605.4 257.738   4
   5  -5   6 13768.8 269.892   4
  -5   5   6 13141.4 282.488   5
   5  -5   6 15055.5 325.453   6
   5  -5   6 15796.3 345.854   7
   5  -5   8 6118.61 155.994   4
  -5   5   8 6013.18 164.450   2
  -5  -5   8 6304.30 268.172   8
  -5   5   8 5563.17 160.705   5
   5  -5   8 6692.42 213.555   7
   5  -5   8 6829.37 194.874   6
  -5  -5  10 2857.61 88.8684   4
   5  -5  10 2911.19 146.787   1
  -5  -5  10 2796.05 64.2910   2
  -5  -5  10 2995.16 182.698   8
   5  -5  10 3086.24 149.322   7
   5  -5  12 3399.63 118.863   4
  -5  -5  12 3623.83 104.782   4
   5  -5  12 3975.76 179.782   1
  -5  -5  12 2935.77 93.3654   3
   5  -5  12 3949.47 163.586   8
  -5  -5  12 3979.20 217.585   8
   5  -5  12 4946.22 169.280   6
   5  -5  12 4332.33 188.622   7
  -5   5  12 3322.71 112.249   5
   5   5  14 1135.48 99.6015   4
  -5  -5  14 1445.24 64.0368   4
   5  -5  14 1430.72 76.0785   4
  -5  -5  14 1224.67 60.9928   3
   5   5  14 1273.35 120.542   3
   5  -5  14 1674.65 108.101   8
  -5  -5  14 1736.26 147.687   8
  -5   5  14 1370.63 65.1988   5
   5  -5  14 1792.50 107.437   6
   5  -5  14 1833.74 127.164   7
   5  -5  16 2460.94 104.976   4
  -5  -5  16 2515.89 88.2924   4
   5   5  16 1911.87 134.233   4
   5  -5  16 2216.63 126.875   1
  -5  -5  16 1773.23 84.6529   3
   5   5  16 2021.48 160.663   3
  -5   5  16 2270.01 92.3422   7
   5  -5  16 2312.05 130.456   9
   5  -5  16 2795.87 147.949   8
   5   5  16 2667.21 157.027   9
  -5  -5  16 2495.46 180.231   8
  -5   5  16 2263.34 106.592   8
  -5  -5  16 1928.83 108.350   6
   5  -5  16 2933.95 169.918   7
   5  -5  18 237.630 36.3060   4
   5   5  18 154.979 45.6377   4
   5   5  18 231.000 59.6192   3
  -5  -5  18 194.579 30.4555   3
   5  -5  18 178.399 39.5747   1
  -5   5  18 249.334 33.5102   7
   5  -5  18 288.106 54.9244   8
  -5  -5  18 197.811 29.9293   6
   5  -5  20 218.988 35.4134   4
   5   5  20 144.571 47.9284   4
  -5  -5  20 163.442 30.7372   3
  -5   5  20 228.712 35.0944   7
  -5  -5  20 178.707 17.1037   5
  -5  -5  20 150.981 17.9528   5
   5  -5  22 833.353 64.7508   4
  -5  -5  22 720.466 59.3630   3
  -5  -5  22 714.810 71.9648   4
   5   6 -19 801.748 93.6720   9
   5  -6 -19 800.163 103.304   9
   5  -6 -17 2609.89 175.927   9
   5   6 -17 3016.57 173.001   9
  -5  -6 -17 2998.15 133.271   7
  -5  -6 -17 3059.44 99.2262   6
   5   6 -15 2322.02 132.750   1
   5  -6 -15 2046.81 145.657   9
   5   6 -15 2163.98 138.422   9
  -5  -6 -15 2035.60 100.930   6
   5  -6 -13 3291.88 173.590   9
   5   6 -13 3879.97 173.067   9
   5   6 -13 3499.21 167.366   8
  -5   6 -13 3902.24 125.195   5
   5  -6 -13 3665.06 145.628   6
   5   6 -11 3492.49 166.074   8
   5  -6 -11 3550.59 167.851   9
  -5   6  -9 4194.72 191.016   3
   5   6  -9 4294.06 133.281   1
   5  -6  -9 3354.89 129.975   6
  -5  -6  -9 3071.61 118.480   7
  -5   6  -9 3092.02 110.976   5
  -5  -6  -7 8686.33 288.393   4
  -5   6  -7 7836.72 185.410   4
  -5   6  -7 8722.77 264.838   3
   5   6  -7 6526.10 238.484   8
  -5   6  -7 6640.91 179.678   5
   5  -6  -7 7036.15 205.409   6
  -5   6  -5 5112.54 132.546   4
  -5  -6  -5 5098.09 203.410   4
   5  -6  -5 5172.13 146.319   1
  -5   6  -5 4651.85 116.809   8
   5   6  -5 5053.04 213.416   8
  -5   6  -5 4543.05 137.976   7
  -5   6  -5 4730.37 140.429   5
   5   6  -3 1202.00 54.8733   4
  -5  -6  -3 1276.30 84.9555   4
  -5   6  -3 1313.63 57.6183   4
   5  -6  -3 1384.39 77.6219   1
   5   6  -3 1211.24 106.797   8
  -5   6  -3 1007.62 48.8829   8
  -5   6  -3 1060.94 56.8095   7
   5  -6  -3 1215.13 72.2426   5
  -5   6  -1 7524.09 197.784   2
   5   6  -1 7511.18 184.940   4
  -5  -6  -1 8097.32 217.381   4
  -5   6  -1 8318.92 180.901   4
   5  -6  -1 8743.34 223.754   5
  -5   6  -1 7796.24 182.226   7
  -5   6   1 7636.84 188.732   2
   5   6   1 6496.90 195.467   3
   5   6   1 6937.87 187.767   4
  -5  -6   1 7502.17 190.900   4
  -5   6   1 7498.91 170.907   4
  -5   6   1 7149.25 165.879   7
   5  -6   1 8264.44 213.802   5
  -5   6   3 1073.47 58.8333   2
   5   6   3 896.935 74.5843   3
   5   6   3 870.659 64.8569   4
  -5  -6   3 1025.54 55.4282   4
  -5   6   3 981.245 59.4879   5
   5  -6   3 1124.06 72.2801   5
  -5   6   3 1015.47 50.2540   7
  -5   6   5 5173.45 149.051   2
  -5  -6   5 5518.32 138.371   4
  -5   6   5 5078.23 151.785   5
   5  -6   5 5231.99 178.008   7
   5  -6   5 5583.20 172.907   5
  -5   6   7 7388.93 185.801   2
   5  -6   7 7409.82 210.014   5
   5  -6   7 6510.73 161.399   4
   5  -6   7 7928.95 232.736   7
  -5   6   7 6332.58 177.292   5
  -5   6   9 3450.56 123.048   2
  -5  -6   9 3288.46 98.6511   4
   5  -6   9 3637.44 139.789   6
   5  -6  11 4530.40 126.939   4
  -5  -6  11 4490.64 115.152   4
  -5  -6  11 4010.46 79.7774   2
   5  -6  11 4115.02 178.553   1
   5   6  11 3426.26 191.436   3
  -5  -6  11 4691.90 248.697   8
   5  -6  11 4466.23 201.792   8
   5  -6  11 4825.24 166.604   6
   5  -6  11 4501.02 197.016   7
  -5   6  11 3872.84 128.507   5
  -5  -6  13 3881.56 107.088   4
   5   6  13 2630.96 157.665   4
  -5  -6  13 3327.04 91.8340   3
   5  -6  13 4090.86 123.790   4
   5  -6  13 3586.68 163.788   1
   5   6  13 3141.35 190.208   3
  -5  -6  13 4280.89 242.126   8
   5  -6  13 4314.51 195.353   8
  -5   6  13 3427.54 117.021   5
   5  -6  13 4373.40 164.312   6
   5  -6  13 4457.04 198.836   7
   5  -6  15 2709.13 101.784   4
  -5  -6  15 2042.78 77.5411   3
  -5  -6  15 2529.74 86.3967   4
   5   6  15 1849.50 133.344   4
   5   6  15 2031.70 157.434   3
   5   6  15 2834.53 159.797   9
   5  -6  15 2452.13 128.265   9
   5  -6  15 2608.22 155.123   8
  -5   6  15 2360.51 86.8606   7
  -5  -6  15 2561.45 192.289   8
   5  -6  15 2784.50 134.878   6
   5  -6  15 2809.22 163.998   7
   5  -6  17 3527.26 122.548   4
  -5  -6  17 2616.09 97.1335   3
  -5  -6  17 3203.70 100.071   4
   5   6  17 2351.88 157.093   4
   5  -6  17 2806.36 145.496   1
   5   6  17 2705.46 190.933   3
   5  -6  17 3662.63 190.173   8
  -5   6  17 3320.79 109.746   7
  -5  -6  17 2510.49 130.325   6
   5   6  19 627.762 82.8712   4
   5  -6  19 824.137 60.5846   4
  -5  -6  19 703.726 45.6121   4
  -5  -6  19 665.741 49.4644   3
   5   6  19 582.398 92.1622   3
  -5   6  19 853.778 55.7979   7
  -5  -6  19 666.329 40.3858   5
  -5  -6  19 695.104 53.1565   6
   5  -6  21 1270.78 74.1207   4
  -5  -6  21 1130.80 58.9031   4
  -5  -7 -18 1184.28 84.5730   7
  -5  -7 -18 1370.53 63.5815   6
   5   7 -16 3837.76 190.246   9
  -5  -7 -16 3171.78 136.637   6
   5  -7 -14 2592.66 159.651   9
   5   7 -14 2844.61 153.758   9
   5   7 -14 2942.37 158.992   8
   5  -7 -14 2712.17 129.787   6
  -5   7 -12 5171.42 179.681   4
   5   7 -12 4482.01 194.715   8
   5   7 -12 4526.12 185.719   9
   5  -7 -12 4106.53 193.892   9
   5  -7 -12 4991.94 171.927   6
  -5   7 -10 7593.00 209.226   4
   5   7 -10 10467.6 262.063   1
  -5   7 -10 8644.94 296.690   3
   5  -7 -10 5837.69 227.938   9
  -5   7  -8 11583.5 321.851   3
  -5  -7  -8 8599.91 224.295   7
  -5   7  -6 15068.1 272.916   4
  -5  -7  -6 15336.3 405.140   4
  -5   7  -6 10843.6 251.174   8
  -5   7  -6 12521.4 281.194   7
   5  -7  -6 13208.4 304.863   5
  -5  -7  -4 6650.61 228.640   4
  -5   7  -4 6834.88 154.009   4
   5   7  -4 6809.36 148.074   4
   5  -7  -4 5862.16 173.938   1
  -5   7  -4 5662.48 157.871   7
  -5   7  -4 5165.49 149.101   8
   5   7  -4 5747.14 254.941   8
   5  -7  -4 6149.90 188.842   5
  -5  -7  -2 10966.3 281.300   4
  -5   7  -2 10636.0 214.799   4
   5   7  -2 10428.1 222.705   4
   5  -7  -2 10212.9 260.812   1
  -5   7  -2 9204.17 239.686   8
  -5   7  -2 9665.79 218.364   7
   5  -7  -2 10967.7 267.656   5
  -5  -7   0 29526.0 529.423   4
   5   7   0 25056.7 489.493   4
  -5   7   0 28069.8 474.190   4
   5  -7   0 28555.9 553.584   1
  -5   7   0 27793.0 505.225   2
   5   7   0 24618.1 496.029   3
  -5   7   0 27561.1 472.132   7
   5  -7   0 28477.9 542.163   5
   5   7   2 9272.61 263.299   3
   5   7   2 9204.43 240.963   4
  -5  -7   2 9505.03 223.607   4
   5  -7   2 9461.15 251.630   5
  -5   7   2 9748.04 200.103   7
  -5   7   4 6784.71 176.303   2
  -5  -7   4 6794.41 164.762   4
   5   7   4 5657.02 192.985   4
   5  -7   4 6162.06 197.730   7
  -5   7   4 6449.98 179.652   5
   5  -7   4 7386.08 207.881   5
  -5   7   6 14508.3 306.903   2
   5  -7   6 15073.8 341.635   5
   5  -7   6 15131.1 356.673   7
   5  -7   8 9714.85 268.197   2
  -5   7   8 10637.3 252.690   2
  -5  -7   8 11902.7 222.893   4
   5  -7   8 10753.4 275.858   5
  -5   7   8 9711.88 246.786   5
   5  -7   8 11920.3 318.302   7
  -5  -7  10 7017.02 161.982   4
   5  -7  10 7515.56 174.976   4
   5  -7  10 6966.33 241.581   1
   5  -7  10 7488.78 227.800   2
  -5   7  10 8035.87 212.258   2
   5  -7  10 8609.33 302.974   8
   5  -7  10 8740.41 271.948   7
   5  -7  12 4834.66 131.098   4
  -5  -7  12 4641.25 120.528   4
   5  -7  12 4395.87 182.151   1
   5  -7  12 5489.54 241.967   8
  -5  -7  12 5447.72 282.594   8
   5  -7  12 5332.14 215.816   7
  -5   7  12 4631.95 146.790   5
   5  -7  12 5359.63 182.385   6
   5   7  14 2161.81 146.433   4
   5  -7  14 3233.15 103.725   4
  -5  -7  14 3050.89 91.4966   4
   5  -7  14 2860.89 146.169   1
   5   7  14 2363.72 170.019   3
  -5  -7  14 2846.32 68.3007   2
  -5  -7  14 3265.85 224.789   8
  -5   7  14 2947.75 88.5564   7
   5   7  14 3357.11 171.609   9
   5  -7  14 3503.74 197.580   8
   5  -7  14 3632.83 151.121   6
   5  -7  14 3419.74 180.408   7
   5   7  16 2874.78 180.138   4
  -5  -7  16 4564.97 119.949   4
   5  -7  16 5186.30 141.199   4
   5  -7  16 3790.26 170.290   1
   5   7  16 3079.04 209.582   3
  -5   7  16 4495.15 120.468   7
   5   7  16 4790.13 224.055   9
   5  -7  16 4585.57 237.216   8
   5  -7  16 4703.39 181.216   6
  -5  -7  18 1348.77 60.3278   4
   5  -7  18 1434.40 71.0876   4
   5   7  18 962.401 103.951   4
   5   7  18 1040.59 123.239   3
  -5   7  18 1341.05 63.5764   7
   5  -7  18 1319.22 130.761   8
  -5  -7  18 998.205 83.2471   6
  -5  -7  20 376.913 45.4580   4
  -5  -7  20 475.563 36.3213   4
   5  -7  20 481.229 42.5738   4
  -5  -7  20 380.424 40.7039   6
  -5   7  20 507.636 42.4092   7
  -5  -7  20 418.575 32.3076   5
  -5  -8 -19 808.995 47.0842   6
  -5  -8 -19 784.353 39.6534   5
   5   8 -17 898.401 104.652   1
  -5  -8 -17 765.493 63.3865   7
  -5  -8 -17 711.421 64.2520   6
   5   8 -15 1090.28 98.5324   1
   5   8 -15 847.997 88.6878   8
   5  -8 -15 908.180 72.6299   6
   5   8 -13 4284.60 169.177   1
  -5   8 -13 4171.57 222.229   3
   5   8 -13 3030.23 166.659   8
   5  -8 -13 3109.48 136.955   6
  -5   8 -11 1287.01 75.2862   4
   5   8 -11 1032.56 95.3938   8
  -5   8 -11 1142.10 81.5394   7
  -5  -8 -11 986.316 63.0129   7
   5  -8 -11 1094.06 76.0383   6
  -5   8  -9 1352.24 69.2959   4
  -5   8  -9 1203.36 77.9190   7
  -5   8  -7 6002.64 179.743   7
   5  -8  -7 6407.37 196.714   5
  -5   8  -5 2093.76 78.3076   4
  -5   8  -5 2144.08 92.8224   7
  -5   8  -3 348.675 29.6190   4
  -5  -8  -3 389.952 54.0815   4
   5   8  -3 336.357 29.8124   4
   5  -8  -3 310.380 39.3457   1
  -5   8  -3 318.560 32.5540   7
  -5   8  -3 372.635 42.8514   8
   5  -8  -3 436.810 48.5204   5
   5   8  -1 6236.56 167.566   4
  -5  -8  -1 6780.06 210.529   4
  -5   8  -1 6841.27 159.362   4
   5  -8  -1 6438.79 201.474   1
  -5   8  -1 6872.43 187.035   2
   5  -8  -1 7162.99 207.550   5
   5   8   1 5813.54 171.910   4
  -5  -8   1 6478.06 183.715   4
  -5   8   1 6043.85 170.292   2
   5  -8   1 5758.84 195.894   1
   5   8   1 5240.44 181.023   3
  -5   8   1 5747.36 141.377   7
   5  -8   1 6357.56 194.531   5
  -5   8   3 263.931 32.5844   2
   5   8   3 282.163 38.8457   4
   5  -8   3 314.774 44.7665   5
  -5   8   5 2474.18 100.467   2
   5  -8   5 2195.21 103.701   2
   5  -8   5 2671.28 121.441   5
  -5   8   5 2380.29 71.7428   7
   5  -8   5 2755.43 126.710   7
  -5   8   5 2368.58 103.363   5
   5  -8   7 5471.73 182.670   2
  -5   8   7 5919.58 172.427   2
  -5  -8   7 5770.52 142.171   4
   5  -8   7 6577.85 222.328   7
   5  -8   7 6268.99 199.345   5
  -5   8   7 6119.53 128.897   7
  -5   8   7 5680.68 174.397   5
   5  -8   9 1319.51 85.8045   2
  -5  -8   9 1401.99 57.5008   4
   5  -8   9 1505.59 104.864   7
  -5   8   9 1453.95 50.1801   7
   5  -8  11 1192.29 85.0210   2
   5  -8  11 1187.68 93.2249   1
  -5  -8  11 1344.14 54.1169   4
   5  -8  11 1188.80 54.1478   4
   5  -8  11 1427.15 89.9977   5
   5  -8  11 1255.06 102.025   7
   5  -8  13 3036.64 93.4979   4
  -5  -8  13 2604.87 82.1743   4
   5  -8  13 2787.61 143.165   1
   5  -8  13 2805.37 135.316   2
  -5   8  13 3140.63 75.3161   7
   5  -8  13 3622.06 209.902   8
   5  -8  13 2962.37 130.759   9
   5  -8  13 3272.28 143.917   6
   5  -8  13 3447.18 178.536   7
   5  -8  15 1021.47 52.8797   4
  -5  -8  15 925.908 46.0886   4
   5  -8  15 921.361 78.8342   9
  -5   8  15 1070.81 42.4333   7
   5   8  17 591.649 83.3055   4
  -5  -8  17 873.975 44.5512   4
   5  -8  17 896.804 50.7659   4
   5   8  17 667.191 98.9422   3
   5  -8  17 1136.52 126.839   8
   5  -8  17 914.231 78.3380   6
  -5   8  17 934.706 43.2313   7
  -5  -8  19 821.696 43.2240   4
   5  -8  19 848.194 49.8393   4
  -5  -8  19 687.534 54.0628   4
  -5  -8  19 774.598 49.7042   5
  -5   8  19 870.109 45.3212   7
   5   9 -18 234.995 66.4995   1
  -5  -9 -18 150.631 33.8994   6
  -5  -9 -18 236.252 30.8652   5
   5  -9 -16 714.120 90.2819   9
   5   9 -16 833.534 88.0409   9
   5   9 -16 877.463 93.5068   8
   5  -9 -16 886.328 74.7795   6
   5   9 -14 244.516 52.3275   1
   5   9 -14 222.099 50.3211   8
   5  -9 -14 187.109 47.1703   9
   5  -9 -14 220.768 40.4206   6
  -5   9 -12 342.273 42.1459   4
  -5   9 -12 279.904 63.9880   3
   5   9 -12 276.866 53.3358   8
  -5  -9 -12 256.001 32.7404   7
   5  -9 -12 210.813 48.0822   9
   5  -9 -12 294.811 43.8218   6
  -5   9 -10 2053.76 88.4606   4
  -5   9 -10 2044.03 137.977   3
   5   9 -10 1736.00 129.565   8
  -5  -9 -10 1601.71 82.9918   7
  -5   9  -8 919.147 85.5248   3
  -5   9  -8 929.806 52.7650   4
   5   9  -8 953.411 72.3552   1
  -5   9  -8 747.202 61.3048   7
   5  -9  -8 858.617 69.5329   5
  -5   9  -6 971.193 64.8415   7
   5  -9  -6 1050.09 76.7745   5
  -5  -9  -4 461.355 65.4013   4
  -5   9  -4 397.414 38.8847   7
   5  -9  -4 459.896 51.2814   5
   5   9  -2 769.316 47.9608   4
  -5   9  -2 805.068 45.9762   4
  -5  -9  -2 773.485 74.1177   4
   5  -9  -2 793.031 65.6987   1
  -5   9  -2 853.075 62.0637   2
  -5   9  -2 732.638 48.6617   7
   5  -9  -2 800.775 66.3654   5
  -5   9   0 2038.03 93.4794   2
  -5   9   0 2024.73 77.1831   4
   5   9   0 1820.72 84.8963   4
  -5  -9   0 2098.65 108.417   4
   5  -9   0 1961.01 103.782   5
  -5   9   2 824.870 57.4739   2
   5   9   2 744.417 60.5613   4
   5  -9   2 922.008 70.0369   5
  -5  -9   4 583.900 45.3467   4
   5  -9   4 561.066 50.7935   2
  -5   9   4 570.864 48.9990   2
  -5   9   4 663.762 34.5381   7
   5  -9   4 560.128 56.9182   5
  -5   9   4 671.100 55.8141   5
   5  -9   4 766.184 66.7482   7
  -5  -9   6 1089.99 54.6088   4
  -5   9   6 1073.94 68.7369   2
   5  -9   6 1011.83 70.7684   2
  -5   9   6 1067.20 40.2303   7
  -5   9   6 963.092 68.3100   5
   5  -9   6 1216.91 89.3708   7
   5  -9   6 1169.58 82.2247   5
  -5  -9   8 764.105 42.4473   4
   5   9   8 611.315 70.0661   4
   5  -9   8 757.896 64.4184   2
  -5   9   8 799.425 61.1981   2
  -5   9   8 816.036 28.7587   7
   5  -9   8 860.000 72.3549   5
  -5   9   8 814.517 63.5410   5
   5  -9   8 905.491 82.5391   7
   5  -9  10 1826.57 102.686   2
   5  -9  10 1836.39 115.158   1
  -5   9  10 2110.74 101.883   2
  -5  -9  10 1944.18 65.9083   4
   5  -9  10 2159.46 131.220   7
   5  -9  12 240.791 45.9497   1
  -5  -9  12 293.947 24.3471   4
   5   9  12 150.870 43.0703   4
   5  -9  12 281.187 44.2482   5
   5  -9  12 328.712 56.9108   7
  -5  -9  14 167.598 19.6961   4
   5   9  14 88.6991 39.4216   4
   5  -9  14 156.841 20.7441   4
   5  -9  14 147.474 38.0941   1
   5   9  14 194.000 48.8801   9
   5  -9  14 133.605 34.1955   9
   5  -9  14 196.233 40.5573   6
  -5  -9  16 941.830 42.2047   4
   5  -9  16 970.077 47.9566   4
   5  -9  16 958.513 81.4009   2
   5  -9  16 1140.81 131.275   8
   5   9  16 1139.69 114.635   9
   5  -9  16 876.638 79.9430   9
   5  -9  16 1127.23 87.3163   6
   5  -9  18 158.694 38.9712   2
  -5  -9  18 149.657 18.0603   4
  -5  -9  18 93.2429 20.2660   4
   5  -9  18 131.805 20.2406   4
   5  -9  18 171.861 41.5741   6
  -5  -9  18 115.161 23.8152   5
   5  -9  20 208.910 43.7823   2
   5  10 -19 1031.43 130.154   1
   5  10 -17-3.60403 51.0296   1
   5 -10 -17 16.4921 24.2371   6
  -5 -10 -17 10.7591 19.5739   5
   5  10 -15 10.2761 32.4040   1
   5  10 -15 5.70628 27.9032   8
   5 -10 -15 22.6584 29.0123   9
   5  10 -15-6.88249 30.3380   9
   5 -10 -15 12.4927 20.6790   6
   5  10 -13 1585.02 127.479   8
  -5 -10 -13 1617.63 79.5712   7
   5 -10 -13 1272.55 108.821   9
   5  10 -13 1508.27 106.399   9
   5 -10 -13 1644.56 101.007   6
  -5  10 -11 499.118 43.9816   4
   5 -10 -11 455.692 53.3878   5
   5  10 -11 503.975 72.5139   8
   5 -10 -11 422.449 59.1381   9
  -5 -10 -11 429.817 41.9967   7
  -5  10  -9 1189.24 59.6250   4
  -5  10  -9 1401.35 108.996   3
   5  10  -9 1484.37 104.751   1
   5  10  -9 1078.64 105.713   8
   5 -10  -9 907.083 78.7692   9
  -5 -10  -9 1027.08 66.9999   7
  -5  10  -7 1532.88 64.3351   4
  -5  10  -7 1409.99 84.8990   7
   5 -10  -7 1571.36 98.1102   5
  -5  10  -7 1421.08 85.2351   5
  -5  10  -5 470.315 34.9642   4
   5  10  -5 519.952 31.7466   4
  -5  10  -5 394.784 42.7238   7
  -5  10  -5 430.629 47.0663   5
   5 -10  -5 471.866 54.5899   5
  -5  10  -3 3314.23 118.009   7
   5 -10  -3 3846.28 155.431   5
  -5  10  -1 376.554 41.6973   2
   5  10  -1 310.063 37.3818   3
   5  10  -1 354.668 36.0840   4
  -5  10  -1 367.087 32.1038   4
   5 -10  -1 303.676 43.7401   5
  -5  10   1 304.588 37.6538   2
   5 -10   1 236.386 33.6085   2
   5  10   1 230.888 34.9160   4
   5 -10   1 284.710 43.0214   5
  -5 -10   3 3785.09 132.998   4
  -5  10   3 3801.81 133.139   2
  -5  10   3 3668.28 100.154   7
   5 -10   3 3778.23 151.192   7
  -5 -10   5 577.068 44.0294   4
   5 -10   5 412.512 45.0587   2
  -5  10   5 562.108 50.4017   2
  -5  10   5 520.738 28.8645   7
  -5  10   5 429.611 47.9578   5
   5 -10   5 516.567 57.6114   5
   5 -10   5 598.417 63.1765   7
  -5 -10   7 1409.28 61.7871   4
   5  10   7 1078.62 92.5198   4
   5 -10   7 1288.10 81.3090   2
  -5  10   7 1470.51 82.5144   2
  -5  10   7 1281.42 36.4162   7
  -5  10   7 1316.12 84.1287   5
   5 -10   7 1488.25 104.355   7
   5 -10   7 1284.02 89.8846   5
   5 -10   9 1073.48 77.1084   2
  -5  10   9 1192.37 78.0992   2
  -5 -10   9 1137.21 49.2098   4
   5 -10   9 1122.70 94.8804   7
   5 -10  11 582.885 66.3359   1
  -5  10  11 555.996 56.7812   2
   5  10  11 349.161 60.0489   4
  -5 -10  11 479.137 28.6787   4
   5 -10  11 513.912 59.5877   5
   5 -10  11 555.061 71.5206   7
   5  10  13 969.198 103.094   4
  -5 -10  13 1406.35 47.2650   4
   5 -10  13 1379.48 102.270   1
  -5  10  13 1853.53 104.956   2
   5 -10  13 1371.43 88.7380   9
   5  10  13 1618.39 120.557   9
   5 -10  13 1487.41 98.9689   5
   5 -10  13 1568.63 122.064   7
   5  10  15-3.24411 30.0997   4
  -5 -10  15 14.9534 8.84723   4
   5 -10  15 10.9265 22.7391   2
   5 -10  15 9.37500 22.1839   9
   5  10  15 12.1027 36.5824   9
   5 -10  15 9.61703 24.4873   6
   5 -10  17 17.3719 24.4107   2
  -5 -10  17 10.7158 8.02857   4
  -5 -10  17 19.1018 7.76339   4
   5  10  17 31.7502 35.3866   4
   5 -10  17 12.3823 23.9547   6
   5 -10  19 794.003 75.5110   2
  -5 -10  19 690.710 51.4203   5
   5  11 -18 15.6849 52.8693   1
  -5 -11 -18 68.8700 24.8938   5
   5 -11 -18 36.0482 31.2500   6
   5  11 -16 921.832 102.054   8
   5 -11 -16 1029.09 84.2631   6
  -5 -11 -16 1090.64 80.3193   5
  -5  11 -14 314.918 71.1977   3
   5  11 -14 205.899 55.5823   1
   5  11 -14 227.109 54.4944   8
  -5 -11 -14 182.956 28.5117   7
   5  11 -14 198.559 44.8037   9
   5 -11 -14 154.506 45.3533   9
   5 -11 -14 192.120 39.3649   6
   5 -11 -12 460.463 56.0525   5
  -5  11 -12 598.751 82.6522   3
  -5 -11 -12 499.899 43.5699   7
   5  11 -12 528.695 77.8314   8
   5  11 -12 493.850 62.4388   9
   5 -11 -12 451.750 63.2272   9
  -5  11 -10 1458.42 67.5310   4
   5  11 -10 1695.80 112.087   1
   5  11 -10 1353.06 124.286   8
   5 -11 -10 1227.32 95.1111   9
   5 -11 -10 1539.56 99.9557   5
  -5 -11 -10 1193.73 71.1774   7
  -5  11  -8 520.906 36.9403   4
   5  11  -8 411.826 73.7145   8
   5 -11  -8 361.919 48.6455   9
   5  11  -8 422.344 46.6761   9
   5 -11  -8 435.840 55.5320   5
  -5  11  -6 2810.12 90.7686   4
  -5  11  -6 3008.53 133.371   8
  -5  11  -6 3007.78 130.596   5
   5 -11  -6 3092.30 144.585   5
   5  11  -4 227.993 37.4103   1
   5  11  -4 250.393 24.6151   4
  -5  11  -4 316.874 28.9997   4
  -5  11  -4 234.171 38.3730   5
   5 -11  -4 250.576 42.3685   5
   5  11  -2 199.350 27.4684   3
  -5  11  -2 158.965 30.4418   2
   5  11  -2 145.018 12.6121   2
   5 -11  -2 192.107 37.9081   5
  -5  11   0 5076.10 163.661   2
  -5  11   0 4639.36 136.228   7
   5 -11   0 5007.82 190.331   5
  -5 -11   2 167.876 32.7508   4
  -5  11   2 160.986 29.2637   2
   5 -11   2 135.121 35.6419   1
   5 -11   2 161.963 29.1618   2
  -5  11   2 228.160 55.5095   1
  -5  11   2 138.069 20.7084   7
   5 -11   2 141.717 34.7378   5
  -5  11   4 337.452 41.3358   2
   5 -11   4 262.645 36.5941   2
  -5 -11   4 301.878 36.7434   4
   5 -11   4 302.012 45.9720   5
  -5  11   4 243.087 40.2466   5
   5 -11   4 326.419 47.6909   7
  -5  11   6 3289.64 128.797   2
   5 -11   6 2936.06 126.889   2
  -5 -11   6 3197.54 105.390   4
   5  11   6 2690.87 145.614   4
   5 -11   6 3100.26 144.823   5
  -5  11   6 2697.65 131.078   5
   5 -11   6 3458.91 162.169   7
   5 -11   8 384.639 46.9198   2
   5 -11   8 384.184 56.0308   1
  -5  11   8 353.187 47.0673   2
   5  11   8 305.318 53.8811   4
  -5 -11   8 424.277 31.4985   4
   5 -11   8 390.170 53.2312   5
   5 -11   8 438.151 62.1907   7
   5 -11  10 1348.74 101.078   1
  -5  11  10 1574.98 94.4608   2
  -5 -11  10 1383.65 48.4920   4
   5 -11  10 1444.37 100.459   5
   5 -11  10 1499.98 113.440   7
   5  11  12 305.161 60.8675   4
   5 -11  12 463.569 62.0919   1
   5 -11  12 524.115 57.1922   2
   5 -11  12 409.898 47.2647   9
   5  11  12 531.377 70.2740   9
   5 -11  12 530.743 61.4677   5
   5 -11  12 506.114 71.7796   7
   5  11  14 120.385 46.9233   4
   5 -11  14 213.451 40.2694   2
   5  11  14 178.973 51.0113   9
   5 -11  14 175.158 37.2072   9
   5 -11  14 246.605 44.7187   5
   5 -11  16 1015.84 82.8358   2
   5 -11  16 1087.71 86.3385   9
   5 -11  16 1155.55 93.1155   6
   5 -11  18 43.1217 28.5900   2
   5 -11  18 46.1484 31.1325   6
  -5 -11  18 21.7671 18.3613   5
   5  12 -19 596.563 109.663   1
   5 -12 -17 1052.00 89.4239   6
  -5 -12 -17 1162.09 81.7836   5
   5  12 -15 983.858 105.955   8
  -5 -12 -15 885.804 57.8169   7
   5 -12 -15 977.834 84.0878   6
  -5 -12 -13 1253.45 67.1163   7
   5  12 -13 1378.39 125.095   8
   5  12 -13 1523.16 104.221   9
   5 -12 -13 1300.04 105.459   9
  -5  12 -11 986.037 54.0408   4
  -5  12 -11 911.942 74.0182   8
   5  12 -11 894.401 105.584   8
   5 -12 -11 781.238 78.3171   9
  -5 -12 -11 834.247 57.6985   7
   5 -12 -11 1000.68 85.4589   5
  -5  12  -9 860.070 46.8349   4
   5  12  -9 869.289 102.737   8
   5 -12  -9 806.510 73.2309   9
  -5 -12  -9 656.805 54.5674   7
  -5  12  -7 2680.50 84.9052   4
   5  12  -7 2527.28 185.185   8
   5  12  -7 2464.00 107.779   9
   5 -12  -7 2540.53 136.839   5
  -5  12  -5 2249.76 77.6253   4
   5  12  -5 2002.52 65.5971   4
   5 -12  -5 2016.32 120.179   5
  -5  12  -3 378.645 31.6305   4
   5  12  -3 393.676 33.7840   4
   5  12  -3 465.632 31.4943   3
   5  12  -3 348.910 17.6512   2
  -5  12  -3 369.736 58.2460   8
   5  12  -3 393.985 79.0099   8
   5 -12  -3 323.893 50.2241   5
  -5  12  -1 3170.07 130.250   2
   5  12  -1 2867.17 75.8422   2
   5  12  -1 3379.63 116.933   4
  -5  12  -1 3335.07 103.896   4
   5 -12  -1 3126.99 150.028   5
   5 -12   1 3773.67 177.950   1
  -5  12   1 3004.01 127.332   2
  -5  12   1 3932.05 220.127   1
   5 -12   1 3154.58 152.582   5
   5 -12   3 375.750 59.5882   1
  -5  12   3 387.335 44.7520   2
   5 -12   3 315.212 40.4162   2
   5 -12   3 332.983 50.2771   5
  -5  12   3 338.150 47.1703   5
   5 -12   5 2038.92 128.924   1
  -5  12   5 2224.42 107.397   2
   5 -12   5 1897.90 100.786   2
   5  12   5 2032.66 121.479   4
   5 -12   5 1979.68 118.433   5
  -5  12   7 2691.45 123.240   2
   5 -12   7 2472.56 117.813   2
   5  12   7 2194.36 137.121   4
   5 -12   7 2467.85 133.441   5
   5 -12   7 2836.48 151.211   7
   5  12   9 664.917 79.2708   4
   5 -12   9 728.161 81.1284   1
  -5  12   9 796.524 68.3709   2
   5 -12   9 706.555 53.3715   9
   5 -12   9 862.091 87.2618   7
   5  12  11 742.164 89.3863   4
   5 -12  11 907.392 73.4441   2
   5  12  11 1138.59 95.6544   9
   5 -12  11 911.785 67.0564   9
   5 -12  11 1007.69 86.9279   5
   5 -12  11 964.167 96.5391   7
   5  12  13 924.883 105.581   4
   5 -12  13 1383.68 92.5030   2
   5  12  13 1625.06 125.265   9
   5 -12  13 1101.13 80.5571   9
   5 -12  13 1308.72 100.097   5
   5 -12  15 895.872 78.2550   2
   5  12  15 1099.08 111.738   9
   5 -12  15 862.092 75.9322   9
   5 -12  15 965.831 84.5733   5
   5 -12  17 963.080 81.3289   2
   5 -12  17 1014.92 88.9393   6
   5 -12  19 390.174 54.9558   2
   5  13 -20 624.818 116.971   1
   5  13 -18 1018.59 131.049   1
   5 -13 -16 2143.39 129.309   6
  -5 -13 -16 2325.53 128.158   5
  -5 -13 -14 2021.72 84.5011   7
   5  13 -14 2216.40 161.951   8
  -5  13 -12 3688.66 157.285   8
   5  13 -12 4140.43 168.780   9
  -5 -13 -12 3357.51 115.652   7
   5  13 -12 3649.11 210.763   8
   5 -13 -12 3861.34 174.178   9
   5 -13 -12 3789.38 175.031   5
  -5  13 -10 1870.69 67.8179   4
  -5  13 -10 2500.82 152.560   3
   5  13 -10 2312.27 141.171   1
  -5  13 -10 2013.88 114.222   8
   5  13 -10 2086.69 159.545   8
   5 -13 -10 1859.06 111.318   9
   5 -13 -10 2184.99 130.953   5
  -5 -13 -10 1715.04 85.7288   7
  -5  13  -8 5064.37 123.547   4
   5 -13  -8 4634.29 173.260   9
   5  13  -8 4714.48 259.359   8
   5  13  -8 5148.59 168.632   9
  -5  13  -6 8457.67 185.973   4
   5 -13  -6 9231.36 236.729   9
   5  13  -6 8567.98 220.604   9
   5  13  -6 8878.34 383.879   8
   5 -13  -6 9500.08 289.851   5
   5  13  -4 2097.99 72.8833   4
  -5  13  -4 2251.28 79.5403   4
   5  13  -4 1809.92 171.504   8
   5 -13  -4 1803.65 86.6116   9
   5 -13  -4 1912.30 122.914   5
   5  13  -2 4039.17 92.4355   2
  -5  13  -2 4224.69 157.760   2
   5  13  -2 4106.72 125.196   4
  -5  13  -2 4182.23 120.803   4
   5 -13  -2 4397.62 187.192   5
  -5  13   0 13486.7 326.224   2
   5  13   0 13377.9 250.107   2
  -5  13   0 14030.9 283.855   4
   5 -13   0 13331.0 371.680   5
  -5  13   2 4076.77 152.363   2
   5 -13   2 3537.82 156.436   7
   5 -13   2 3955.42 177.465   5
  -5  13   4 2020.86 103.377   2
   5 -13   4 1741.05 98.3387   2
   5 -13   4 1771.23 116.977   5
   5 -13   4 2044.59 120.956   7
  -5  13   6 9687.19 264.080   2
   5  13   6 8822.84 295.632   4
   5 -13   6 9023.78 291.572   5
   5  13   8 4405.17 208.504   4
  -5  13   8 5010.78 180.294   2
   5 -13   8 5251.55 229.146   1
   5  13   8 5650.17 194.043   9
   5 -13   8 4389.23 139.049   9
   5  13  10 1681.81 132.325   4
   5 -13  10 2213.54 114.290   2
   5  13  10 2553.77 142.098   9
   5 -13  10 2015.73 97.5969   9
   5 -13  10 2375.77 150.359   7
   5 -13  10 2043.58 126.002   5
   5 -13  12 3598.22 152.729   2
   5 -13  12 3340.47 138.455   9
   5 -13  12 3870.52 177.732   5
   5  13  14 1634.41 144.200   4
   5 -13  14 2094.52 115.890   2
   5  13  14 2624.87 165.704   9
   5 -13  14 2026.31 111.969   9
   5 -13  14 2367.89 136.476   5
   5 -13  16 2140.68 117.753   2
   5 -13  16 2059.38 119.129   9
   5 -13  18 672.395 67.6466   2
   5  14 -17 2480.71 205.455   1
   5  14 -15 1326.51 130.914   1
  -5 -14 -15 1185.11 96.3055   5
  -5  14 -13 1373.59 96.5033   8
   5 -14 -13 1472.96 109.637   5
  -5  14 -11 2144.77 146.848   3
  -5  14 -11 1759.33 110.091   8
   5  14 -11 1922.04 157.867   8
   5 -14 -11 2175.98 136.307   5
  -5 -14 -11 1579.20 76.3866   7
  -5  14  -9 1369.94 51.3882   4
  -5  14  -9 1669.54 121.844   3
   5  14  -9 1639.90 121.974   1
  -5  14  -9 1221.75 92.9845   8
   5 -14  -9 1420.34 88.5868   9
   5  14  -9 1445.55 140.938   8
   5 -14  -9 1516.31 112.834   5
  -5 -14  -9 1088.33 70.0551   7
  -5  14  -7 2753.09 83.1578   4
  -5  14  -7 2639.63 140.564   8
   5 -14  -7 2539.45 112.973   9
   5  14  -7 2890.02 113.938   9
   5  14  -7 2502.01 198.177   8
   5 -14  -7 2717.04 150.326   5
  -5  14  -5 2389.73 81.1694   4
   5  14  -5 2326.73 68.7172   4
   5  14  -5 2111.26 189.930   8
   5 -14  -5 2241.33 96.0320   9
   5  14  -5 2328.25 91.6709   9
   5 -14  -5 2290.02 139.878   5
  -5  14  -3 800.821 46.6242   4
   5  14  -3 794.334 47.5732   4
   5  14  -3 742.206 31.1832   2
   5  14  -3 963.793 54.7088   3
   5  14  -3 817.882 119.734   8
   5 -14  -3 817.254 49.9966   9
   5  14  -3 771.579 46.1739   9
   5 -14  -3 739.629 79.4680   5
   5  14  -1 3433.63 91.7675   2
  -5  14  -1 3736.48 149.782   2
  -5  14  -1 3890.25 117.481   4
   5 -14  -1 3857.54 182.055   5
  -5  14   1 3614.45 146.538   2
   5 -14   1 3692.80 168.833   1
   5 -14   1 3349.96 172.948   5
  -5  14   3 780.031 66.1229   2
   5 -14   3 931.263 87.3796   1
   5  14   3 843.685 72.7308   4
   5 -14   3 784.932 81.3565   5
   5 -14   3 872.016 78.6345   7
  -5  14   5 2495.42 121.890   2
   5 -14   5 2408.99 140.944   5
   5 -14   5 2520.32 141.301   7
   5 -14   7 2650.59 125.239   2
   5 -14   7 2372.62 92.4990   9
   5 -14   7 2548.07 144.258   5
   5 -14   7 2822.28 160.484   7
   5  14   9 1371.17 117.474   4
   5 -14   9 1390.29 90.6873   2
   5  14  11 1522.66 130.332   4
   5 -14  11 1687.99 91.4611   9
   5 -14  11 1863.86 106.771   2
   5  14  13 1042.26 112.798   4
   5 -14  13 1058.58 81.7573   2
   5 -14  13 1109.78 78.4609   9
   5 -14  15 1083.06 84.5464   2
   5 -14  15 1040.36 81.2949   9
   5  14  15 1295.45 118.231   9
   5 -14  17 1443.16 95.6027   2
   5  15 -14 490.047 88.2954   1
  -5 -15 -12 680.746 43.5037   7
  -5  15 -12 821.060 76.9494   8
  -5  15 -10 906.048 95.4278   3
  -5  15 -10 730.441 73.5551   8
   5  15 -10 805.198 106.303   8
  -5 -15 -10 654.346 48.9289   7
  -5  15  -8 1194.01 45.5527   4
  -5  15  -8 1285.25 101.061   8
   5  15  -8 1277.26 140.738   8
  -5  15  -6 2338.82 77.2753   4
   5 -15  -6 2353.43 93.6001   9
   5  15  -6 2577.34 96.8341   9
  -5  15  -6 2221.82 142.644   8
   5  15  -6 2391.19 203.775   8
   5  15  -4 172.124 21.0046   4
  -5  15  -4 166.975 22.9096   4
  -5  15  -4 118.684 46.3581   8
   5  15  -4 142.916 65.3915   8
   5 -15  -4 162.297 23.2095   9
   5  15  -4 188.138 23.9579   9
   5  15  -4 129.246 41.3178   1
   5  15  -2 663.706 47.2485   4
  -5  15  -2 670.254 45.4865   4
  -5  15  -2 658.779 88.3131   8
   5 -15  -2 725.570 37.3722   9
   5  15  -2 755.888 38.2022   9
   5  15  -2 714.152 35.8301   2
  -5  15   0 5271.76 144.445   4
  -5  15   0 5210.93 181.587   2
   5  15   0 4818.63 120.063   2
  -5  15   2 685.388 64.3445   2
   5 -15   2 740.906 76.2964   1
   5  15   2 478.802 63.9396   1
   5  15   2 693.986 65.0493   4
   5  15   4 155.335 38.8140   4
  -5  15   4 178.120 36.4752   2
  -5  15   4 233.699 72.8504   1
   5 -15   4 182.600 19.7634   9
   5  15   4 212.954 30.2505   9
   5 -15   4 207.739 44.7179   7
   5  15   6 2351.11 141.005   4
   5  15   6 2762.70 115.458   9
   5 -15   6 2163.36 80.6746   9
   5 -15   6 2591.84 150.495   7
   5 -15   8 1284.48 87.4260   2
   5 -15   8 1222.15 65.3710   9
   5  15   8 1555.69 95.1062   9
   5 -15   8 1334.37 115.752   7
   5 -15  10 790.545 57.6703   9
   5 -15  10 807.716 70.8135   2
   5  15  12 702.042 94.3116   4
   5 -15  12 805.671 71.1479   2
   5 -15  12 851.746 64.8525   9
   5  15  12 990.460 91.1594   9
   5 -15  14 321.277 48.4073   2
   5  15  14 459.290 70.4780   9
   5 -15  14 354.589 46.9304   9
   5 -15  16 797.475 71.6778   2
  -5  16 -13 542.911 66.3309   8
  -5  16 -11 8.79807 25.3849   8
  -5 -16 -11-1.50901 13.4880   7
   5  16  -9 111.560 48.6632   1
  -5  16  -9 138.443 39.9428   8
   5  16  -9 104.468 52.3808   8
  -5 -16  -9 139.422 26.1303   7
  -5  16  -7 536.254 30.2010   4
  -5  16  -7 480.896 66.0497   8
   5  16  -7 492.281 97.4693   8
  -5  16  -5 41.2960 14.6629   4
  -5  16  -5 48.9576 35.9012   8
   5  16  -5 37.2113 51.9473   8
   5  16  -5 74.7610 43.1202   1
  -5  16  -3 824.872 48.3520   4
   5  16  -3 798.068 126.472   8
  -5  16  -3 809.571 100.384   8
   5  16  -3 1043.65 61.0465   3
   5  16  -1 108.383 17.4301   2
   5  16  -1 73.0246 38.0408   1
  -5  16  -1 119.900 23.0762   4
   5  16   1 65.0483 33.0535   1
   5  16   1 109.055 18.9661   2
   5  16   3 926.674 77.7978   4
   5  16   3 788.724 34.7583   9
   5 -16   3 926.749 84.3512   7
   5  16   5 54.4404 32.6976   4
   5  16   5 40.5110 35.3590   1
  -5  16   5 78.2902 57.5177   1
   5  16   5 47.8738 17.6178   9
   5 -16   5 37.6380 30.6559   7
   5  16   7 500.251 70.7112   4
  -5  16   7 657.676 105.377   1
   5  16   7 619.424 51.0700   9
   5 -16   7 497.694 35.6603   9
   5 -16   7 456.831 69.9437   7
   5  16   9 81.1128 40.9085   4
   5  16   9 113.502 32.0809   9
   5 -16   9 101.402 23.0799   9
   5 -16   9 125.696 33.3416   2
   5  16  11 6.69536 34.4167   4
   5 -16  11 13.9155 22.2997   2
   5  16  11 11.7276 27.8461   9
   5 -16  13 539.073 59.3619   2
   5  16  13 858.956 83.9400   9
   5 -16  15 14.4795 21.4842   2
  -5  17 -14 96.2714 38.0562   8
  -5  17 -12 27.5307 28.8293   8
  -5  17 -10 409.479 61.0261   8
  -5 -17 -10 329.936 31.7238   7
  -5  17  -8 68.7885 35.3740   8
  -5 -17  -8 37.0322 21.1621   7
  -5  17  -6 201.735 20.2430   4
   5  17  -6 182.983 75.8033   8
  -5  17  -6 182.340 48.1750   8
   5  17  -6 192.658 55.3958   1
  -5  17  -4 196.975 24.3838   4
   5  17  -4 193.913 20.6165   4
  -5  17  -4 159.384 54.5411   8
   5  17  -4 207.086 76.4604   8
   5  17  -4 233.965 64.8724   1
  -5  17  -2 12.4896 14.4390   4
  -5  17  -2 25.8681 40.4630   8
   5  17  -2 11.0284 48.0742   8
  -5  17  -2-5.74666 58.8404   1
   5  17  -2-9.72436 38.7668   1
   5  17  -2 3.91230 10.3860   2
   5  17   0 531.872 37.5553   2
  -5  17   0 582.513 45.4932   4
  -5  17   2-16.4763 67.0658   1
   5  17   2 12.3549 12.8076   2
   5  17   2 2.57818 31.5046   1
   5  17   2 8.16868 23.7439   4
  -5  17   4 292.135 88.5133   1
   5  17   4 85.4402 39.4409   1
   5  17   4 230.632 44.9801   4
   5 -17   4 159.171 42.6019   7
  -5  17   6 322.824 87.1753   1
   5  17   6 204.653 49.0860   4
   5 -17   6 211.274 52.2127   7
   5  17   8 67.4572 39.3810   4
  -5  17   8 51.8603 56.0684   1
   5  17   8 24.6581 32.5104   1
   5  17  10 461.231 77.0917   4
   5 -17  12 21.0494 23.0835   2
   5 -17  14 84.7067 31.4470   2
  -5  18 -11 128.313 41.7791   8
  -5  18  -9 155.441 45.2355   8
  -5  18  -7 932.096 97.4550   8
  -5  18  -5 337.633 27.3685   4
  -5  18  -5 343.189 67.4619   8
   5  18  -3 327.827 28.8152   4
  -5  18  -3 318.767 31.4313   4
  -5  18  -3 226.024 62.1519   8
   5  18  -3 342.704 37.2200   3
  -5  18  -1 757.509 50.2798   4
  -5  18  -1 675.304 99.4924   8
   5  18  -1 697.240 42.1417   2
   5  18   1 599.042 42.4763   2
   5  18   1 652.665 58.3239   4
  -5  18   1 688.193 51.6240   4
   5  18   3 264.141 61.4958   1
   5  18   3 275.603 32.4653   2
   5  18   3 341.404 51.1890   4
   5  18   5 443.602 44.2612   2
   5  18   5 454.241 63.0183   4
   5 -18   5 506.486 72.9644   7
   5  18   7 907.506 94.6405   4
  -5  18   7 1542.02 163.722   1
   5  18   9 144.173 49.8055   4
  -5  19 -10 1122.98 100.918   8
  -5  19  -8 1001.58 101.834   8
  -5  19  -6 1884.87 144.463   8
  -5  19  -4 1092.73 72.7096   4
  -5  19  -4 1134.88 122.902   8
  -5  19  -2 1234.47 60.6226   4
  -5  19  -2 1127.38 132.740   8
   5  19   0 2543.83 106.175   4
  -5  19   0 2682.95 101.294   4
   5  19   0 2567.11 91.0278   2
   5  19   2 1430.43 90.3483   4
  -5  19   2 1284.15 73.9459   4
   5  19   2 1277.96 65.9911   2
   5  19   4 1243.26 93.7170   4
   5  19   4 1201.27 68.4508   2
   5  19   6 2074.92 134.611   4
  -5  19   6 3193.21 245.467   1
   5  19   8 1065.83 104.112   4
  -5  20  -7 1696.65 133.342   8
  -5  20  -5 1201.55 123.056   8
  -5  20  -3 302.916 78.6335   8
  -5  20  -1 1803.43 168.702   8
   5  20   1 1931.37 95.8721   4
   5  20   3 268.104 44.7225   4
   5  20   5 1408.93 103.243   4
   5  21   4 303.120 50.3816   4
   6   0 -20 887.605 108.534   9
   6   0 -18 480.410 80.5016   9
  -6   0 -18 477.196 28.3680   5
   6   0 -16 2698.51 168.839   9
  -6   0 -16 2683.65 128.951   7
  -6   0 -16 2718.93 83.3023   5
  -6   0 -14 3375.06 139.430   7
   6   0 -14 3444.66 176.298   9
  -6   0 -14 3634.58 104.891   5
  -6   0 -12 6650.65 193.817   7
  -6   0 -12 6382.10 164.525   5
  -6   0 -10 4260.55 181.147   4
  -6   0 -10 2935.63 104.649   5
  -6   0  -8 13215.6 313.308   4
  -6   0  -8 9992.60 240.710   6
  -6   0  -6 36073.5 686.216   3
  -6   0  -6 34887.8 604.935   4
  -6   0  -4 576.443 60.4421   3
  -6   0  -4 561.417 48.2666   4
  -6   0  -4 488.431 46.1318   6
  -6   0  -2 8005.85 226.201   3
   6   0  -2 8635.76 163.309   8
   6   0  -2 8085.67 176.536   2
  -6   0   0 64870.6 1070.23   4
   6   0   0 65522.0 1067.63   2
  -6   0   2 6270.20 157.651   4
  -6   0   4 691.109 44.3162   4
  -6   0   4 677.520 41.4695   2
  -6   0   4 746.434 59.8627   8
  -6   0   4 687.993 58.0901   6
  -6   0   6 28802.1 513.558   4
  -6   0   6 30078.6 503.958   2
  -6   0   6 28872.5 562.558   6
  -6   0   8 10425.7 213.689   2
  -6   0   8 10159.9 257.346   6
   6   0  10 3131.58 136.707   4
  -6   0  10 3431.40 136.093   8
   6   0  12 7097.20 228.048   4
  -6   0  12 7073.50 176.309   2
  -6   0  12 7505.88 225.962   8
   6   0  14 3916.27 198.385   3
   6   0  14 3842.42 164.032   4
  -6   0  14 4159.23 170.454   8
   6   0  14 3848.87 122.366   8
  -6   0  14 3752.95 124.229   5
   6   0  16 2772.32 170.314   3
   6   0  16 2550.57 104.943   8
  -6   0  16 2806.18 145.387   8
  -6   0  16 2606.29 91.5484   5
   6   0  18 531.946 79.6794   3
   6   0  18 572.772 68.6766   4
   6   0  18 609.807 75.5879   1
   6   0  18 571.119 53.0418   8
  -6   0  18 523.021 33.7594   5
   6   0  20 953.285 88.4573   4
   6   0  20 989.496 106.541   3
  -6   0  20 1063.97 79.9816   7
   6   0  20 768.179 82.9471   1
   6   0  22 1323.95 104.400   4
   6  -1 -19 113.686 48.1761   9
   6   1 -19 68.6292 40.5347   9
  -6  -1 -19 83.1130 33.6466   7
  -6   1 -17 2223.41 121.655   7
   6  -1 -17 2272.66 160.463   9
   6   1 -17 2383.10 161.308   9
  -6  -1 -17 2272.22 70.3907   5
  -6   1 -17 2419.69 76.3453   5
   6   1 -15 1604.32 123.693   9
  -6  -1 -15 1542.31 91.7543   7
  -6   1 -15 1600.99 96.2319   7
   6  -1 -15 1629.38 125.191   9
  -6  -1 -15 1717.13 64.0973   5
  -6   1 -15 1475.00 62.3690   5
  -6  -1 -13 1959.96 148.479   4
  -6   1 -13 1793.31 134.870   4
   6   1 -13 899.887 46.5884   1
  -6   1 -13 1259.84 79.3923   7
  -6  -1 -13 1309.97 78.9939   7
  -6  -1 -13 1203.41 60.1988   5
  -6   1 -13 1143.88 57.7546   5
  -6  -1 -11 2196.39 142.977   4
  -6   1 -11 2026.99 128.971   4
  -6   1  -9 3503.35 149.268   4
  -6  -1  -9 3382.58 158.971   4
  -6   1  -9 2671.70 97.3635   5
  -6  -1  -9 2648.43 104.206   6
  -6   1  -7 2526.90 143.804   3
  -6   1  -7 2538.26 111.331   4
  -6  -1  -7 2402.85 118.671   4
  -6   1  -7 1825.31 82.4688   5
  -6  -1  -7 1985.18 93.0719   6
  -6  -1  -5 969.320 67.1370   4
  -6   1  -5 1029.61 65.6060   4
  -6   1  -5 1019.11 83.8880   3
  -6  -1  -5 1050.41 84.8513   3
   6   1  -5 996.492 53.1806   8
  -6  -1  -5 716.926 59.0653   6
  -6   1  -5 783.250 54.3272   6
  -6   1  -3 1270.73 67.4419   4
  -6  -1  -3 1138.59 67.3591   4
  -6   1  -3 1326.31 84.9968   3
  -6  -1  -3 1244.65 82.8696   3
   6  -1  -3 1183.00 53.6649   2
   6   1  -3 1284.72 50.4720   2
   6   1  -3 1190.91 57.8247   8
  -6   1  -3 1065.67 63.7346   6
  -6  -1  -1 1835.36 81.3103   4
  -6   1  -1 1957.51 80.3380   4
  -6  -1  -1 1938.04 94.4389   3
   6   1  -1 1974.33 81.4019   8
   6  -1  -1 1888.83 74.8596   2
   6   1  -1 1843.09 72.0700   2
   6  -1   1 2138.59 89.2984   2
  -6  -1   1 2110.30 83.5795   4
  -6   1   1 2237.48 83.3870   4
  -6   1   3 1283.35 61.4111   4
  -6  -1   3 1272.61 61.4779   4
  -6   1   3 1453.36 63.9964   2
  -6   1   3 1201.92 65.4825   8
  -6   1   3 1220.61 71.3549   6
  -6  -1   3 1131.93 81.2033   6
   6  -1   5 826.499 58.0981   4
  -6   1   5 898.388 51.6722   4
  -6  -1   5 1004.41 53.8726   4
  -6   1   5 1035.67 52.0519   2
  -6  -1   5 968.405 46.3417   2
  -6   1   5 1038.69 58.0871   8
  -6  -1   5 957.708 77.5877   8
  -6   1   5 936.221 62.2795   6
  -6  -1   5 896.618 71.5220   6
   6  -1   7 2512.41 107.621   4
  -6  -1   7 2515.53 91.5799   4
  -6   1   7 2635.29 88.2030   2
  -6   1   7 2605.17 101.263   8
  -6  -1   7 2802.15 131.049   8
  -6  -1   7 2347.11 115.053   6
  -6   1   7 2432.40 103.766   6
   6  -1   9 3122.87 128.156   4
  -6   1   9 3242.93 102.891   2
  -6   1   9 3194.20 118.920   8
  -6  -1   9 3473.56 150.292   8
  -6  -1   9 2984.82 129.368   6
   6  -1  11 1846.28 100.814   4
   6   1  11 1697.20 104.891   4
  -6  -1  11 1812.51 71.2915   2
  -6   1  11 1817.72 93.1279   8
  -6  -1  11 1916.09 110.532   8
   6  -1  13 1568.50 97.1665   4
   6   1  13 1289.21 94.3338   4
   6  -1  13 1353.02 68.0731   8
  -6   1  13 1520.89 89.7056   8
  -6  -1  13 1349.32 97.4331   8
  -6  -1  13 1496.06 78.9349   6
  -6   1  13 1377.93 70.1029   5
   6  -1  15 1589.54 124.225   3
   6   1  15 1627.88 129.619   3
   6  -1  15 1584.47 79.6217   8
  -6   1  15 1585.51 98.3428   8
  -6  -1  15 1674.42 113.269   8
  -6   1  15 1408.68 67.1236   5
  -6  -1  15 1360.27 70.7703   5
   6   1  17 2436.55 164.468   3
   6  -1  17 2441.02 160.280   3
   6  -1  17 2626.47 135.816   4
   6  -1  17 2213.06 143.071   1
   6  -1  17 2359.37 107.766   8
  -6   1  17 2471.71 133.033   8
  -6  -1  17 2476.48 145.084   8
   6   1  17 2232.18 98.8044   8
  -6   1  17 2166.64 77.6677   5
  -6  -1  17 2019.10 78.4031   5
   6  -1  19 151.673 38.9292   4
   6   1  19 128.477 47.8101   3
   6   1  19 88.7250 37.1657   1
   6  -1  19 124.370 39.5322   1
   6  -1  19 153.639 33.1985   8
  -6   1  19 155.044 32.0805   7
  -6  -1  19 126.327 16.3328   5
  -6   1  19 155.115 14.9075   5
   6  -1  21 699.675 74.7546   4
   6   1  21 689.279 78.3538   4
   6   2 -20 133.374 50.5424   9
  -6  -2 -18 43.5542 25.7101   7
   6  -2 -18 68.3039 43.5655   9
   6   2 -18 25.5451 31.7605   9
  -6   2 -18 42.2733 27.8492   7
  -6  -2 -18 48.4124 10.6913   5
  -6   2 -16 1337.51 91.4844   7
   6  -2 -16 1356.52 121.437   9
   6   2 -16 1436.42 120.903   9
  -6  -2 -16 1206.44 52.2787   5
  -6   2 -16 1407.00 60.2203   5
  -6  -2 -14 12.5865 11.6354   5
   6   2 -14 18.6895 18.0405   1
  -6  -2 -14 12.2287 14.9221   7
   6  -2 -14 40.1630 31.0824   9
   6   2 -14 37.5267 27.1255   9
  -6   2 -14 26.7790 18.0255   7
  -6   2 -14 16.3397 11.6693   5
  -6   2 -12 496.550 64.7499   4
  -6  -2 -12 508.506 79.0105   4
   6   2 -12 512.667 37.5227   1
  -6   2 -12 383.113 43.7774   7
  -6  -2 -12 375.390 36.0678   6
  -6  -2 -10 3113.84 165.221   4
  -6   2 -10 3191.07 144.895   4
  -6  -2 -10 2607.08 106.380   6
  -6   2 -10 2275.86 87.3454   5
  -6   2  -8 597.582 56.6262   4
  -6  -2  -8 665.126 69.9450   4
  -6   2  -8 617.302 76.1872   3
   6   2  -8 651.254 52.0454   8
  -6  -2  -8 455.997 48.2365   6
  -6   2  -8 485.915 39.3087   5
  -6  -2  -6 4062.83 154.909   4
  -6   2  -6 3944.54 136.841   4
  -6   2  -6 3680.38 171.690   3
   6   2  -6 3620.57 128.222   8
  -6   2  -6 3287.25 114.508   5
  -6  -2  -6 3376.11 141.250   6
  -6   2  -4 1623.30 77.4671   4
  -6  -2  -4 1433.94 81.9062   4
  -6   2  -4 1392.61 91.7967   3
  -6  -2  -4 1511.86 95.3774   3
   6   2  -4 1394.14 47.8415   2
   6   2  -4 1392.74 74.4919   8
  -6   2  -4 1135.72 63.2152   5
   6  -2  -4 1374.72 94.7445   6
  -6  -2  -4 1192.55 84.7103   6
  -6   2  -2 239.010 28.1246   4
  -6  -2  -2 212.786 29.7394   4
   6   2  -2 218.831 26.4730   4
   6  -2  -2 287.227 28.7059   2
   6   2  -2 213.161 21.0398   2
  -6  -2  -2 224.597 34.8515   3
   6   2  -2 221.583 32.5022   8
   6  -2  -2 265.015 42.3828   6
  -6  -2   0 10649.0 236.528   4
  -6  -2   0 11051.4 250.280   3
  -6   2   0 10750.8 229.871   4
   6  -2   0 9891.06 229.151   2
   6   2   0 10219.3 224.725   2
   6   2   0 9689.86 266.516   8
   6  -2   0 11223.9 296.851   6
  -6  -2   2 320.473 31.4303   4
  -6   2   2 340.640 32.1249   4
  -6   2   2 366.868 33.8188   2
  -6   2   2 300.950 27.0590   8
   6  -2   2 356.007 49.1011   6
  -6   2   4 1251.89 61.5239   4
   6  -2   4 1148.86 64.9128   4
  -6  -2   4 1286.77 61.9944   4
  -6   2   4 1367.22 64.7983   2
  -6   2   4 1296.68 56.5688   8
   6  -2   6 3311.06 122.156   4
  -6  -2   6 3789.80 112.969   4
   6   2   6 3294.52 154.839   3
  -6   2   6 3718.37 112.068   2
  -6  -2   6 3557.77 165.800   8
  -6   2   6 3499.49 106.237   8
  -6  -2   6 3069.07 148.382   6
  -6   2   6 3034.69 114.875   5
   6  -2   8 552.261 49.0424   4
  -6  -2   8 540.294 40.3324   4
  -6   2   8 500.736 40.5487   8
  -6  -2   8 503.278 63.6553   8
  -6  -2   8 485.939 57.3434   6
  -6   2   8 458.974 42.1794   5
   6  -2  10 2359.37 109.888   4
  -6  -2  10 2634.66 95.2102   4
  -6   2  10 2559.36 95.9159   2
  -6  -2  10 2647.92 82.1280   2
  -6   2  10 2651.03 104.269   8
  -6  -2  10 2624.74 142.310   8
   6  -2  12 446.700 49.6414   4
   6   2  12 432.068 57.2485   4
  -6  -2  12 416.136 32.8864   2
   6  -2  12 437.875 39.2773   8
  -6   2  12 492.920 47.9040   8
  -6  -2  12 505.943 64.2328   8
  -6  -2  12 379.156 45.9426   6
  -6   2  12 407.333 37.7091   5
   6   2  14 37.5323 26.3557   4
   6   2  14 8.66530 28.5783   3
   6  -2  14 12.0395 15.0745   8
  -6   2  14 33.0798 20.6139   8
  -6  -2  14 9.57920 22.6976   8
  -6  -2  14 31.6137 18.2065   6
  -6   2  14 20.6332 14.0962   5
   6  -2  14 34.9465 31.2950   7
   6  -2  16 1580.27 99.2969   4
   6   2  16 1388.99 106.553   4
   6   2  16 1248.88 118.864   3
   6  -2  16 1461.92 84.7281   8
  -6   2  16 1390.50 93.2744   8
  -6  -2  16 1625.43 123.858   8
  -6   2  16 1340.86 63.3070   5
   6  -2  16 1624.38 130.361   7
   6  -2  18 76.9071 30.2897   4
   6  -2  18 76.0140 33.3547   1
   6   2  18 43.6191 34.4367   3
   6  -2  18 44.7635 24.1137   8
  -6   2  18 56.3733 13.5806   5
  -6  -2  18 38.0164 15.1746   5
   6  -2  20 116.737 34.9177   4
   6   2  20 108.209 39.7592   4
   6   2  20 57.8898 39.5236   3
  -6   2  20 118.423 31.4670   7
  -6  -2  20 70.8414 10.5123   5
   6  -2  22 309.658 50.0134   4
  -6  -2  22 179.317 38.2994   3
  -6  -3 -19 1463.79 101.016   7
   6   3 -19 1399.69 130.904   9
   6  -3 -19 1455.06 138.179   9
  -6   3 -17 263.511 46.3974   7
   6  -3 -17 285.280 63.9631   9
   6   3 -17 243.480 56.4520   9
  -6  -3 -17 231.948 40.4769   7
  -6  -3 -17 244.272 22.4417   5
  -6   3 -17 242.295 26.8222   5
   6   3 -15 614.030 54.4666   1
  -6   3 -15 600.806 61.5964   7
   6  -3 -15 534.354 76.7390   9
   6   3 -15 603.556 76.0746   9
  -6  -3 -15 561.737 40.2130   5
  -6   3 -15 561.774 40.3376   5
  -6   3 -13 2364.57 113.486   7
  -6  -3 -13 2305.30 106.361   7
   6  -3 -13 2482.58 148.405   9
   6   3 -13 2422.69 140.294   9
  -6  -3 -13 2599.27 99.8703   6
  -6   3 -13 2388.76 87.7614   5
  -6  -3 -11 2643.17 171.102   4
  -6   3 -11 2523.38 133.796   4
  -6   3  -9 6497.48 198.631   4
  -6  -3  -9 6884.86 250.255   4
  -6   3  -9 7401.38 270.851   3
   6   3  -9 6134.75 190.719   8
  -6  -3  -9 5419.46 186.491   6
  -6   3  -9 5163.49 148.656   5
  -6  -3  -7 1682.39 108.026   4
  -6   3  -7 1493.53 81.1516   4
  -6   3  -7 1638.00 114.245   3
   6   3  -7 1390.45 81.7109   8
  -6  -3  -7 1261.94 74.4840   7
   6  -3  -7 1522.27 96.9883   6
  -6   3  -7 1220.48 62.8232   5
  -6  -3  -5 2224.80 112.444   4
  -6   3  -5 2247.61 122.887   3
  -6   3  -5 2259.96 93.5404   4
   6   3  -5 2028.07 100.585   8
  -6   3  -5 1877.60 81.4762   5
   6  -3  -5 2225.89 115.759   6
  -6   3  -3 19463.7 367.290   4
   6   3  -3 18409.1 355.179   4
  -6  -3  -3 20059.4 402.501   4
   6   3  -3 19172.6 319.158   2
   6  -3  -3 19526.0 356.398   2
   6  -3  -3 19685.1 427.113   6
   6   3  -1 361.973 33.9595   4
  -6  -3  -1 387.287 39.4501   4
  -6   3  -1 502.761 38.9039   4
   6  -3  -1 427.634 37.0377   2
   6   3  -1 438.291 31.6164   2
  -6  -3  -1 453.551 44.6759   3
   6   3  -1 394.499 53.3509   8
  -6   3  -1 346.118 36.0150   7
  -6  -3   1 560.794 43.0213   3
  -6   3   1 535.506 43.2727   2
  -6  -3   1 522.819 41.8703   4
  -6   3   1 606.912 41.9393   4
   6  -3   1 529.107 55.6828   6
  -6  -3   3 18452.8 353.330   4
  -6   3   3 18768.7 352.100   4
   6  -3   3 17581.3 353.268   4
  -6   3   3 18820.2 358.350   2
  -6   3   3 18108.0 314.130   8
   6   3   5 1921.40 115.249   3
  -6  -3   5 2157.78 83.3728   4
   6  -3   5 2043.11 86.3445   4
  -6   3   5 2168.09 83.7765   2
  -6   3   5 2277.34 71.7932   8
  -6   3   5 2015.75 89.6240   5
   6  -3   7 1394.88 74.5544   4
  -6  -3   7 1419.61 64.5824   4
  -6   3   7 1463.32 68.3329   2
  -6   3   7 1350.04 60.0738   8
  -6  -3   7 1433.65 113.344   8
  -6   3   7 1199.67 68.3466   5
   6  -3   7 1537.62 99.4351   6
   6  -3   9 5956.90 174.642   4
  -6  -3   9 6037.90 153.586   4
  -6  -3   9 5423.21 126.518   2
  -6   3   9 6200.20 163.304   2
  -6   3   9 5531.54 152.634   8
   6  -3   9 6654.79 162.008   8
  -6  -3   9 6086.93 247.473   8
  -6   3   9 5436.46 157.520   5
   6  -3  11 2083.73 101.165   4
  -6   3  11 2098.17 90.7413   2
  -6  -3  11 2074.65 69.4308   2
  -6   3  11 1997.47 89.2143   8
   6  -3  11 2370.12 94.8885   8
  -6  -3  11 2394.17 150.997   8
  -6   3  11 1962.65 85.9822   5
   6  -3  11 2662.28 144.854   7
  -6  -3  13 2533.36 95.3612   4
   6   3  13 2284.46 133.812   4
   6  -3  13 2691.09 152.693   1
  -6  -3  13 2227.74 78.6498   2
  -6   3  13 2373.02 106.126   8
   6  -3  13 2484.43 106.930   8
  -6  -3  13 2769.61 164.814   8
  -6  -3  13 2213.43 116.201   6
   6  -3  13 3068.21 164.339   7
  -6   3  13 2439.92 94.4435   5
   6  -3  15 714.313 62.5514   4
   6   3  15 561.603 69.7667   4
   6   3  15 605.442 84.9536   3
  -6   3  15 546.147 55.0942   8
   6  -3  15 570.415 55.9567   8
  -6  -3  15 705.016 87.6873   8
  -6  -3  15 548.408 52.6971   6
  -6   3  15 555.684 41.7947   5
   6  -3  15 753.735 86.8541   7
   6  -3  17 318.437 45.6059   4
   6   3  17 240.332 51.2829   4
   6   3  17 225.771 58.6851   3
   6  -3  17 274.196 54.3371   1
  -6   3  17 242.074 41.9341   8
   6  -3  17 261.873 44.0424   8
  -6   3  17 229.679 25.2521   5
   6  -3  19 1458.32 95.1362   4
   6  -3  19 1510.96 115.124   1
   6   3  19 1263.40 126.215   3
   6  -3  19 1598.61 106.824   8
  -6   3  19 1468.84 85.9673   7
  -6  -3  19 1122.89 54.3674   5
   6  -3  21 7.16257 26.4848   4
  -6   3  21 39.7263 25.8351   7
  -6  -3  21 25.5279 22.8852   3
   6  -3  23 5.57190 24.4652   4
  -6  -4 -18 956.447 78.9432   7
   6  -4 -18 971.779 111.509   9
   6   4 -18 886.220 101.546   9
  -6  -4 -18 942.924 40.5209   5
   6   4 -16 448.446 53.7407   1
   6  -4 -16 477.216 76.6595   9
  -6  -4 -16 494.673 53.7573   7
  -6   4 -16 401.125 54.0442   7
   6   4 -16 516.448 75.7064   9
  -6   4 -16 466.634 39.7250   5
  -6   4 -14 1536.74 118.027   4
  -6   4 -14 1293.68 87.0451   7
   6  -4 -14 1335.69 112.872   9
   6   4 -14 1297.67 104.965   9
  -6  -4 -14 1158.54 68.7528   6
  -6   4 -14 1206.29 62.5580   5
   6  -4 -12 1290.62 103.460   9
   6   4 -12 1212.77 95.6594   9
  -6   4 -12 1163.14 61.8888   5
  -6  -4 -12 1203.45 78.5848   6
  -6   4 -10 2306.96 115.224   4
  -6  -4 -10 2591.32 162.999   4
  -6   4 -10 2619.18 164.718   3
   6   4 -10 2074.77 112.495   8
  -6   4 -10 1863.08 81.4291   5
  -6  -4  -8 758.441 81.0781   4
  -6   4  -8 966.449 64.5087   4
   6   4  -8 838.418 70.3129   8
   6  -4  -8 810.135 69.0895   6
  -6   4  -8 779.051 51.0971   5
  -6  -4  -6 1021.92 84.1175   4
  -6   4  -6 974.446 83.8165   3
  -6   4  -6 958.468 59.6563   4
   6  -4  -6 1129.57 69.7000   1
   6   4  -6 715.894 65.4071   8
  -6   4  -6 799.879 52.6953   5
   6  -4  -6 955.766 73.2355   6
  -6  -4  -4 2429.07 116.154   4
  -6   4  -4 2293.02 90.1900   4
   6   4  -4 2042.28 117.524   8
   6  -4  -4 2427.94 117.658   6
  -6   4  -4 2033.89 86.9831   5
  -6   4  -2 1236.88 61.2053   4
   6   4  -2 1088.65 59.4862   4
  -6  -4  -2 1226.21 75.2358   4
   6   4  -2 1199.35 46.1221   2
   6   4  -2 985.380 88.3624   8
   6  -4  -2 1278.69 83.7737   6
  -6   4  -2 1100.69 62.3413   7
  -6   4   0 229.053 26.2717   4
  -6  -4   0 241.632 31.2002   4
   6   4   0 205.938 29.0028   4
   6  -4   0 250.868 40.2570   6
  -6   4   0 169.303 26.3691   7
  -6  -4   2 1026.20 58.7664   4
  -6   4   2 1044.14 56.0531   4
  -6   4   2 1103.03 61.8888   2
  -6  -4   2 1009.46 52.7972   3
  -6   4   2 993.260 33.4965   8
  -6   4   4 2253.71 88.4557   2
  -6  -4   4 2188.96 85.6599   4
   6  -4   4 2069.59 85.0331   4
   6   4   4 1803.10 113.511   3
   6  -4   4 2469.35 119.490   6
  -6   4   4 2010.18 87.1484   5
   6   4   6 669.759 71.3927   3
  -6   4   6 832.926 53.1113   2
   6  -4   6 836.297 53.6969   4
  -6  -4   6 882.051 51.4315   4
   6  -4   6 982.914 75.8604   6
  -6   4   6 727.130 51.8108   5
  -6  -4   8 752.836 46.9915   4
   6  -4   8 774.597 53.5308   4
  -6  -4   8 767.570 32.4712   2
  -6   4   8 778.972 52.3138   2
  -6  -4   8 896.987 97.7523   8
   6  -4   8 867.464 61.4924   8
  -6   4   8 728.057 43.7704   8
  -6   4   8 694.521 51.1361   5
   6  -4   8 914.482 76.0022   6
  -6  -4  10 1689.09 57.2870   2
   6  -4  10 2126.24 132.406   1
  -6   4  10 2034.75 89.9763   2
   6  -4  10 2307.67 103.236   8
  -6  -4  10 2110.44 151.373   8
  -6   4  10 1833.54 79.0349   8
   6  -4  10 2381.78 135.017   7
  -6  -4  12 1383.42 65.9351   4
   6   4  12 1139.22 94.2253   4
   6  -4  12 1560.63 115.640   1
  -6   4  12 1445.64 78.7179   2
  -6  -4  12 1216.82 49.7887   2
  -6   4  12 1267.43 70.7018   8
   6  -4  12 1531.34 87.4618   8
  -6  -4  12 1532.19 133.507   8
   6  -4  12 1734.26 116.125   6
  -6  -4  12 1024.70 90.2607   6
  -6   4  12 1295.86 69.4950   5
   6  -4  12 1605.68 119.402   7
   6  -4  14 1341.30 81.1001   4
  -6  -4  14 1321.03 65.7774   4
   6   4  14 1121.36 98.3304   4
   6  -4  14 1400.00 108.336   1
   6   4  14 1294.37 120.436   3
  -6  -4  14 1265.51 54.1690   2
  -6   4  14 1159.52 74.2348   8
   6  -4  14 1465.21 90.2820   8
  -6  -4  14 1575.44 136.248   8
  -6   4  14 1177.30 63.8831   5
  -6  -4  14 1082.26 85.7850   6
   6  -4  14 1487.80 119.070   7
   6  -4  16 440.059 49.8909   4
  -6  -4  16 516.057 42.9361   4
   6   4  16 459.327 67.3879   4
   6   4  16 417.180 75.3916   3
   6  -4  16 603.956 74.6360   1
  -6  -4  16 510.208 84.6519   8
  -6   4  16 475.298 52.2372   8
   6  -4  16 605.047 63.1450   8
  -6  -4  16 403.010 48.4816   6
  -6   4  16 451.817 37.2021   5
   6  -4  16 559.112 79.4931   7
   6  -4  18 930.458 71.6127   4
  -6  -4  18 949.451 59.3727   4
   6   4  18 949.193 96.6769   4
   6  -4  18 936.286 88.7485   1
   6   4  18 909.976 110.330   3
  -6  -4  18 704.503 56.1795   3
   6  -4  18 963.515 84.2538   8
  -6   4  18 987.615 66.1464   7
  -6  -4  18 761.543 55.1214   6
   6  -4  20 1605.27 95.7337   4
  -6  -4  20 1633.57 79.5460   4
  -6  -4  20 1191.45 75.3418   3
  -6   4  20 1616.15 89.2502   7
  -6  -4  20 1160.19 52.1969   5
  -6  -4  22 44.6377 23.9934   3
   6  -4  22 71.8738 28.0577   4
  -6  -5 -19 1576.85 102.704   7
   6  -5 -19 1463.13 141.774   9
   6   5 -19 1565.64 135.114   9
  -6  -5 -19 1399.54 45.4016   5
   6   5 -17 78.9775 39.3214   1
  -6  -5 -17 72.7112 26.7594   7
   6  -5 -17 67.8441 39.7597   9
   6   5 -17 63.4493 35.3445   9
  -6  -5 -15 661.443 58.4410   7
  -6   5 -15 725.416 70.2044   7
   6  -5 -15 652.510 86.4816   9
   6   5 -15 800.938 86.4565   9
  -6  -5 -15 687.664 53.5469   6
  -6   5 -15 606.055 47.0937   5
   6   5 -13 3348.05 168.039   9
  -6   5 -13 3630.95 149.279   7
   6  -5 -13 3487.15 181.346   9
  -6  -5 -13 3155.34 139.828   6
  -6   5 -11 2334.95 161.731   3
   6   5 -11 1697.37 110.111   8
  -6   5  -9 4013.13 142.858   4
  -6  -5  -9 3953.33 204.277   4
   6  -5  -9 3260.40 94.4164   1
  -6   5  -9 4509.78 206.598   3
   6   5  -9 3091.08 150.517   8
   6  -5  -9 3662.89 152.255   6
  -6   5  -7 5332.47 206.215   3
  -6   5  -7 4778.02 145.430   4
  -6  -5  -7 4903.03 203.352   4
   6   5  -7 3881.78 169.830   8
   6  -5  -7 4432.97 167.648   6
  -6   5  -7 3822.27 126.599   5
  -6  -5  -7 3552.91 136.794   7
  -6   5  -5 4437.87 134.996   4
  -6  -5  -5 4474.24 178.540   4
   6   5  -5 3929.09 176.149   8
   6  -5  -5 4591.58 167.358   6
  -6   5  -5 3902.93 129.176   5
  -6   5  -3 11585.5 236.011   4
  -6  -5  -3 10133.3 269.791   4
   6   5  -3 10019.2 225.115   4
   6  -5  -3 12934.2 301.314   1
   6   5  -3 10530.8 182.450   2
   6   5  -3 8754.36 312.844   8
   6  -5  -3 10462.8 274.503   6
  -6   5  -3 9530.51 231.100   7
  -6  -5  -1 3972.06 141.158   4
  -6   5  -1 3927.89 117.786   4
   6   5  -1 3750.29 121.381   4
   6  -5  -1 3961.68 152.701   6
  -6   5  -1 3564.97 120.663   7
  -6   5   1 3737.45 127.366   2
   6   5   1 3392.50 125.113   4
  -6  -5   1 3746.21 127.935   4
  -6   5   1 3920.63 117.615   4
   6  -5   1 4039.79 151.736   6
  -6   5   1 3656.94 118.266   7
  -6   5   3 10744.1 243.917   2
  -6   5   3 10466.7 231.615   4
  -6  -5   3 10330.8 234.102   4
  -6   5   5 4244.63 133.811   2
  -6  -5   5 4199.58 123.873   4
   6  -5   5 4161.86 125.234   4
  -6   5   5 4039.88 135.825   5
   6  -5   7 3948.05 128.017   4
  -6   5   7 4126.90 134.077   2
   6  -5   7 4642.14 168.382   8
   6  -5   7 4580.72 173.185   6
  -6   5   7 3919.27 133.633   5
  -6   5   9 4085.96 136.688   2
  -6  -5   9 4085.53 221.960   8
   6  -5   9 4196.84 174.012   8
   6  -5   9 4471.62 185.774   7
  -6  -5  11 2017.26 79.1555   4
   6  -5  11 1994.24 127.201   1
  -6  -5  11 1906.47 53.8007   2
   6   5  11 1763.70 136.167   3
  -6   5  11 2095.59 95.8875   2
  -6  -5  11 2142.45 166.022   8
   6  -5  11 2167.51 119.081   8
   6  -5  11 2137.48 121.839   6
  -6   5  11 1759.70 85.3112   5
   6  -5  11 2254.13 136.202   7
   6  -5  13 4387.77 140.718   4
  -6  -5  13 3899.45 115.905   4
   6   5  13 2973.51 164.261   4
  -6  -5  13 3731.25 90.5325   2
   6   5  13 3213.73 193.654   3
  -6  -5  13 2808.74 93.1255   3
   6  -5  13 4071.25 188.582   1
   6  -5  13 4036.55 171.148   8
  -6  -5  13 4057.23 234.828   8
  -6   5  13 3470.99 125.511   8
  -6   5  13 3465.09 120.327   5
   6  -5  13 4190.01 181.870   6
   6  -5  13 4376.89 205.026   7
   6  -5  15 986.324 66.6076   4
  -6  -5  15 930.054 55.0959   4
   6   5  15 724.645 83.3600   4
  -6  -5  15 714.557 46.2767   3
   6   5  15 820.468 101.428   3
  -6  -5  15 848.949 42.6175   2
   6  -5  15 1056.35 89.7953   8
  -6  -5  15 991.843 120.475   8
  -6   5  15 784.443 51.9791   5
  -6  -5  15 729.733 73.7522   6
   6  -5  15 1120.83 109.000   7
   6   5  17 50.2287 31.9378   4
   6  -5  17 60.4234 23.7137   4
  -6  -5  17 57.6796 19.2407   4
   6  -5  17 30.6336 27.5151   1
   6   5  17 47.4472 40.7507   3
  -6  -5  17 39.2835 16.9177   3
  -6  -5  17 59.3584 15.4186   2
  -6   5  17 58.2016 20.6832   7
   6  -5  17 95.2866 34.9728   8
  -6  -5  17 46.1340 24.1989   6
  -6   5  17 58.1138 16.6624   5
   6  -5  19 1612.84 91.9551   4
  -6  -5  19 1505.72 74.1081   4
   6   5  19 1421.85 123.888   4
  -6  -5  19 1155.35 67.6262   3
   6   5  19 1363.73 137.266   3
   6  -5  19 1620.80 124.739   8
  -6   5  19 1551.64 82.1620   7
  -6  -5  19 1228.28 69.3208   6
   6  -5  21 355.583 45.5104   4
  -6  -5  21 278.142 36.9721   3
  -6  -5  21 338.900 37.0061   4
   6  -5  23 43.3203 25.1156   4
   6  -6 -18 688.671 95.8720   9
   6   6 -18 897.261 98.1841   9
  -6  -6 -18 782.397 71.2164   7
  -6  -6 -16 2578.28 120.258   7
   6  -6 -16 2369.60 167.585   9
   6   6 -16 2715.36 163.695   9
  -6  -6 -16 2705.45 111.862   6
  -6   6 -14 371.912 57.6622   4
  -6  -6 -14 264.706 37.4279   7
  -6   6 -14 309.014 46.3007   7
   6  -6 -14 320.514 60.1217   9
   6   6 -14 282.348 52.1667   9
  -6  -6 -14 279.268 44.8943   6
  -6   6 -12 1322.19 90.2242   4
   6   6 -12 1729.66 92.3961   1
  -6   6 -12 1701.08 142.917   3
   6   6 -12 1071.85 91.2178   8
   6  -6 -12 1112.23 99.4049   9
   6   6 -12 1166.62 92.4403   9
   6  -6 -12 1129.75 86.5765   6
  -6   6 -10 7696.19 286.521   3
   6   6 -10 5873.73 225.548   8
  -6  -6  -8 2415.83 155.381   4
  -6   6  -8 2498.72 145.909   3
   6  -6  -8 2151.41 112.993   6
  -6   6  -6 4053.37 127.213   4
  -6  -6  -6 3799.10 178.957   4
   6  -6  -6 3867.90 151.968   6
  -6   6  -4 5443.00 143.995   4
  -6  -6  -4 5100.03 192.381   4
   6   6  -4 4367.05 128.649   4
   6  -6  -4 5404.56 171.624   1
  -6   6  -4 4541.09 140.140   7
   6   6  -4 4534.60 215.907   8
   6  -6  -4 5194.35 177.204   6
  -6  -6  -2 4541.58 163.577   4
   6   6  -2 4507.68 132.504   4
  -6   6  -2 4589.58 129.514   4
   6  -6  -2 5312.88 189.681   1
   6   6  -2 4011.33 205.794   8
  -6   6  -2 4031.73 127.813   7
   6  -6  -2 4762.49 169.397   6
  -6   6   0 9307.51 227.823   2
   6   6   0 8337.25 216.788   4
  -6  -6   0 9083.13 230.601   4
  -6   6   0 9174.14 205.905   4
  -6   6   0 7696.25 201.290   7
   6  -6   0 9833.46 260.192   6
  -6   6   2 3917.18 130.000   2
   6   6   2 3494.56 133.170   4
  -6  -6   2 4074.55 130.675   4
  -6   6   2 3847.44 118.144   4
  -6   6   2 3587.79 115.592   7
   6  -6   2 4379.02 161.292   6
  -6   6   4 5481.61 160.016   2
   6   6   4 4707.82 194.505   3
  -6  -6   4 5634.15 154.321   4
  -6   6   4 5004.16 158.049   5
  -6   6   6 3807.03 127.513   2
   6   6   6 3144.85 167.437   3
   6  -6   6 3667.87 113.320   4
  -6   6   6 3559.39 127.673   5
   6  -6   6 4271.11 160.928   6
  -6   6   8 1909.53 90.4570   2
  -6  -6   8 1886.94 76.9971   4
   6  -6   8 2275.27 117.247   6
   6  -6   8 2192.12 127.109   7
  -6   6   8 1947.48 91.7435   5
   6  -6  10 6954.66 179.268   4
  -6  -6  10 6835.91 170.017   4
   6   6  10 5908.67 263.188   3
   6  -6  10 7900.79 270.346   1
  -6   6  10 7129.12 201.084   2
   6  -6  10 7800.52 266.034   8
   6  -6  10 8053.43 269.633   7
  -6  -6  12 1176.75 58.1596   4
   6   6  12 813.808 85.2212   4
   6  -6  12 1198.34 66.2156   4
  -6  -6  12 1138.30 30.6358   2
   6  -6  12 1251.14 103.395   1
   6   6  12 932.371 105.371   3
  -6   6  12 1121.98 73.7961   2
  -6  -6  12 1072.93 125.004   8
   6  -6  12 1155.66 104.413   8
   6  -6  12 1412.50 99.0792   6
   6  -6  12 1388.80 112.350   7
  -6   6  12 1064.96 65.6227   5
  -6  -6  14 224.768 20.5480   3
   6   6  14 204.826 49.4445   4
  -6  -6  14 327.764 32.1348   4
   6  -6  14 346.765 38.1558   4
  -6  -6  14 247.240 18.5454   2
   6  -6  14 234.268 47.0719   1
   6   6  14 211.525 57.7383   3
  -6  -6  14 315.511 77.5786   8
   6  -6  14 290.299 57.4348   8
   6  -6  14 312.731 60.7815   7
   6  -6  14 352.749 56.3157   6
  -6   6  14 253.871 32.6922   5
  -6  -6  16 2321.37 79.5358   3
   6   6  16 2265.61 156.024   4
  -6  -6  16 2931.86 98.7860   4
   6  -6  16 3024.28 114.475   4
   6  -6  16 2439.57 139.055   1
   6   6  16 2385.19 176.008   3
  -6  -6  16 2864.94 76.7523   2
  -6   6  16 2565.72 96.8919   7
   6  -6  16 3141.05 177.636   8
  -6  -6  16 2014.41 130.285   6
  -6   6  16 2374.19 95.2766   5
  -6  -6  18 751.275 49.7426   4
   6  -6  18 933.632 64.0048   4
  -6  -6  18 632.371 42.9586   3
   6   6  18 645.755 86.6215   4
   6   6  18 773.403 105.604   3
  -6  -6  18 768.296 41.1056   2
   6  -6  18 813.879 96.1085   8
  -6   6  18 831.470 55.7292   7
   6  -6  20 43.5460 22.8092   4
  -6  -6  20 45.9836 17.9919   4
  -6   6  20 49.5505 21.9828   7
  -6  -6  20 36.0337 19.1590   6
   6  -6  22 985.356 67.9809   4
  -6  -7 -19 447.996 56.8922   7
  -6  -7 -19 512.676 37.1300   5
  -6  -7 -17 933.239 73.4396   7
  -6  -7 -17 985.674 66.9814   6
  -6  -7 -15 884.471 66.3366   7
   6   7 -15 968.330 94.4223   9
  -6   7 -13 2539.24 129.278   4
   6   7 -13 2820.57 127.919   1
  -6   7 -13 2861.63 189.129   3
   6   7 -13 2079.28 134.950   8
  -6   7 -13 2059.51 116.326   7
   6  -7 -13 2049.92 140.189   9
   6   7 -13 2213.46 131.861   9
   6  -7 -13 2217.62 122.652   6
  -6   7 -11 799.916 64.3386   4
  -6   7 -11 873.313 100.382   3
   6   7 -11 716.424 78.5941   8
  -6   7 -11 715.395 62.6185   7
   6  -7 -11 652.155 74.8479   9
   6   7 -11 576.417 63.6308   9
   6  -7 -11 705.926 67.2872   6
  -6   7  -9 1723.21 84.2891   4
   6   7  -9 1591.59 115.774   8
   6  -7  -9 1706.00 102.968   6
  -6  -7  -7 5194.09 231.772   4
  -6   7  -7 5692.89 213.754   3
   6  -7  -7 4168.92 137.626   1
  -6   7  -7 4186.84 145.713   7
   6   7  -7 4336.90 200.853   8
   6  -7  -7 4650.27 172.656   6
  -6   7  -5 1010.16 57.6105   4
  -6  -7  -5 1117.73 95.2386   4
   6   7  -5 924.932 98.5908   8
  -6   7  -5 880.592 57.2420   7
   6  -7  -5 1093.70 80.6660   6
  -6  -7  -3 186.046 38.2960   4
   6   7  -3 169.139 24.2436   4
  -6   7  -3 183.920 24.9581   4
   6  -7  -3 178.740 33.5504   1
   6   7  -3 84.7007 38.2375   8
  -6   7  -3 140.445 22.8383   7
  -6   7  -1 4458.45 156.430   2
  -6  -7  -1 4856.02 169.016   4
  -6   7  -1 4726.76 133.479   4
   6  -7  -1 4980.23 173.331   5
   6   7  -1 4697.94 143.283   4
  -6   7  -1 4420.06 131.552   7
  -6   7   1 4720.63 149.323   2
   6   7   1 4239.93 145.947   4
  -6   7   1 4537.85 131.927   4
   6   7   1 3806.06 147.480   3
   6  -7   1 5067.71 172.764   5
  -6  -7   1 4550.15 147.058   4
  -6   7   1 4028.45 122.582   7
  -6   7   3 171.593 27.6134   2
   6   7   3 112.939 31.2113   3
  -6  -7   3 163.491 26.1371   4
   6  -7   3 172.816 35.9923   5
  -6   7   5 1160.14 68.8544   2
   6   7   5 1015.21 90.7146   3
  -6   7   5 1021.25 66.6142   5
  -6   7   7 4968.12 156.273   2
  -6  -7   7 4919.31 136.337   4
   6  -7   7 5270.13 201.163   7
   6  -7   9 1592.72 99.2566   2
   6   7   9 1507.19 126.851   3
  -6   7   9 1757.76 89.8628   2
  -6  -7   9 1670.24 70.8463   4
   6  -7   9 1779.35 75.1717   4
   6  -7   9 1950.25 125.809   7
  -6  -7  11 734.414 45.4228   4
   6  -7  11 817.366 51.4053   4
   6  -7  11 906.907 84.9551   1
   6   7  11 746.251 95.2455   3
   6  -7  11 827.221 74.4915   2
  -6   7  11 929.476 67.8416   2
   6  -7  11 1027.95 101.939   8
   6  -7  11 1000.98 82.7573   6
   6  -7  11 1042.31 96.3105   7
  -6   7  11 804.904 59.0885   5
   6  -7  13 2401.87 92.7922   4
   6   7  13 1657.50 129.461   4
  -6  -7  13 2466.50 86.8550   4
   6  -7  13 2190.21 131.425   1
   6   7  13 1948.16 156.302   3
  -6   7  13 2370.74 115.284   2
   6  -7  13 3004.12 180.134   8
   6  -7  13 2624.61 138.494   6
  -6   7  13 2038.13 95.5789   5
   6  -7  13 2748.63 163.850   7
   6  -7  15 1124.22 63.5501   4
  -6  -7  15 1026.43 54.6265   4
   6   7  15 782.425 91.2598   4
   6   7  15 876.948 110.146   3
  -6   7  15 1002.04 53.1398   7
   6  -7  15 1189.04 119.465   8
   6  -7  15 1261.14 99.7591   6
  -6   7  15 842.239 58.8358   5
   6   7  17 927.528 104.038   4
  -6  -7  17 1197.81 59.4202   4
   6  -7  17 1202.30 67.0429   4
  -6  -7  17 1112.64 39.0490   2
   6   7  17 934.535 115.719   3
  -6   7  17 1239.22 60.7340   7
   6  -7  17 1291.39 130.395   8
  -6  -7  17 722.982 82.0810   6
  -6  -7  19 578.931 41.8677   4
   6  -7  19 631.060 50.3539   4
  -6  -7  19 586.593 31.6874   2
  -6   7  19 673.960 46.1683   7
   6  -7  21 573.129 48.4875   4
   6   8 -18 82.7316 47.4946   1
  -6  -8 -18 30.0890 24.1578   7
   6  -8 -18 43.9523 38.8784   9
   6   8 -18 78.6909 39.2674   9
  -6  -8 -16 1266.47 83.0276   7
   6  -8 -16 1394.44 102.652   6
   6   8 -14 524.605 73.2406   8
   6  -8 -14 587.532 65.2093   6
  -6   8 -12 1883.53 102.123   4
   6   8 -12 2340.32 118.539   1
  -6   8 -12 2271.76 162.567   3
   6   8 -12 1701.11 126.202   8
  -6   8 -12 1676.51 101.916   7
   6  -8 -12 1932.64 113.427   6
  -6   8 -10 2374.30 102.266   4
  -6   8 -10 2407.66 155.124   3
  -6   8 -10 1866.17 102.262   7
   6   8 -10 1828.42 131.184   8
  -6   8  -8 3266.68 166.178   3
  -6   8  -8 3004.32 105.657   4
   6   8  -8 2601.06 157.854   8
  -6   8  -8 2514.64 112.034   7
   6  -8  -8 2842.59 132.509   6
  -6   8  -6 7836.03 182.603   8
  -6   8  -6 8353.88 218.334   7
   6   8  -6 8224.49 312.944   8
   6   8  -4 148.791 21.6221   4
  -6   8  -4 153.613 23.3717   4
   6  -8  -4 118.221 30.2393   5
  -6  -8  -4 170.522 41.5660   4
   6  -8  -4 166.805 31.7528   1
   6   8  -4 146.777 50.0605   8
  -6   8  -4 130.687 23.8634   7
   6   8  -2 1495.96 71.7952   4
  -6  -8  -2 1736.53 105.373   4
  -6   8  -2 1584.87 70.2341   4
   6  -8  -2 1529.16 93.2273   1
  -6   8  -2 1497.31 71.0956   7
   6  -8  -2 1651.88 97.8570   5
   6   8   0 21001.6 418.678   4
  -6  -8   0 22421.4 452.694   4
  -6   8   0 21322.9 399.625   4
  -6   8   0 22117.2 433.245   2
   6  -8   0 23308.8 473.912   5
  -6   8   2 1294.77 75.8108   2
   6  -8   2 1311.83 88.0606   5
  -6   8   4 87.6230 21.8063   2
   6   8   4 66.1096 26.8852   3
   6  -8   4 142.725 32.7601   5
  -6   8   4 91.7793 23.1647   5
  -6   8   4 98.8179 16.6985   7
  -6   8   6 8978.35 229.750   2
   6  -8   6 8053.94 241.089   2
  -6  -8   6 9041.74 208.406   4
  -6   8   6 8623.35 232.650   5
   6  -8   6 9839.29 269.803   5
  -6   8   6 8698.08 189.080   7
   6  -8   6 9258.10 279.726   7
  -6   8   8 2686.49 115.109   2
   6  -8   8 2314.12 120.300   2
  -6  -8   8 2517.71 91.1468   4
   6  -8   8 2880.04 151.816   7
  -6   8   8 2710.20 85.3485   7
  -6   8   8 2624.52 114.278   5
   6   8  10 1546.42 132.831   3
   6  -8  10 1773.73 106.355   2
  -6   8  10 1971.15 100.019   2
   6  -8  10 1731.78 114.459   1
  -6  -8  10 1902.21 73.3218   4
   6  -8  10 1922.90 75.1977   4
   6   8  10 1330.36 108.601   4
   6  -8  10 2049.90 134.493   7
   6  -8  12 1764.80 109.503   2
   6   8  12 1362.85 132.596   3
  -6   8  12 1894.35 102.379   2
   6  -8  12 1755.71 116.377   1
  -6  -8  12 1860.04 71.7361   4
   6  -8  12 1875.70 76.3044   4
   6   8  12 1257.05 112.351   4
   6  -8  12 2193.48 122.271   6
  -6   8  12 1672.59 89.3887   5
   6  -8  12 2007.17 138.043   7
  -6  -8  14 524.561 37.8507   4
   6  -8  14 644.975 44.8721   4
   6   8  14 437.898 71.0550   4
   6   8  14 433.845 80.7752   3
   6  -8  14 588.358 65.7409   2
   6  -8  14 571.654 68.5675   1
  -6   8  14 679.514 64.5427   2
   6  -8  14 682.081 97.9720   8
  -6   8  14 590.422 34.9433   7
   6  -8  14 710.002 73.9624   6
  -6   8  14 521.636 49.3035   5
   6  -8  16 1378.09 67.9032   4
   6   8  16 914.797 103.146   4
  -6  -8  16 1273.15 58.9846   4
   6   8  16 1043.48 123.436   3
   6  -8  16 1653.76 151.974   8
   6  -8  16 1558.86 111.731   6
  -6  -8  18 66.1187 17.2630   4
   6  -8  18 59.1452 19.2022   4
   6  -8  18 98.7719 57.5237   8
  -6  -8  18 68.1210 35.0276   6
  -6   8  18 92.0471 18.0202   7
   6  -8  20 88.1034 21.8753   4
   6   9 -19 1139.48 125.938   1
   6   9 -17 626.337 88.2377   1
   6  -9 -17 379.579 73.2977   9
   6   9 -17 506.327 73.6737   9
  -6  -9 -17 475.601 52.1529   7
   6  -9 -17 431.155 60.8890   6
  -6  -9 -15 697.222 59.0303   7
   6  -9 -15 680.712 89.5285   9
   6   9 -15 820.544 87.7243   9
   6   9 -15 761.861 89.8684   8
   6  -9 -15 774.475 75.0412   6
  -6   9 -13 2192.82 112.615   4
   6   9 -13 1919.40 137.737   8
   6  -9 -13 1758.92 132.274   9
   6  -9 -13 2178.14 124.282   6
  -6   9 -11 647.999 55.5955   4
  -6   9 -11 762.679 93.4754   3
   6   9 -11 558.643 75.5975   8
  -6   9 -11 517.200 57.6288   7
   6  -9 -11 420.361 62.2022   9
   6  -9 -11 667.416 66.4851   6
  -6   9  -9 226.561 51.9087   3
  -6   9  -9 218.452 30.1718   4
   6   9  -9 219.028 37.6829   1
  -6   9  -9 187.959 33.8418   7
   6   9  -9 183.336 49.4789   8
  -6   9  -9 159.173 30.8009   5
  -6   9  -7 2226.94 86.3260   4
   6  -9  -7 2146.15 115.475   5
   6  -9  -7 1472.06 78.1162   1
  -6   9  -7 1834.10 78.8676   8
   6   9  -7 1975.45 148.701   8
  -6   9  -7 1840.34 93.7609   7
  -6   9  -7 1822.52 93.3243   5
  -6   9  -5 1406.84 70.3712   8
   6   9  -5 1461.03 137.351   8
  -6   9  -5 1447.56 78.1735   7
   6  -9  -5 1571.00 99.3302   5
  -6   9  -5 1374.71 80.7304   5
  -6  -9  -3 297.165 51.5108   4
   6  -9  -3 248.526 40.4946   1
   6   9  -3 294.841 68.2967   8
  -6   9  -3 263.223 32.1765   7
  -6   9  -3 234.700 34.0424   8
   6  -9  -3 292.781 45.0425   5
  -6   9  -1 1516.46 85.3692   2
   6   9  -1 1228.21 68.9154   4
  -6   9  -1 1371.44 66.4778   4
   6   9  -1 1390.42 68.6567   3
  -6  -9  -1 1483.09 98.1915   4
   6  -9  -1 1546.38 99.0791   5
  -6   9   1 1413.11 82.0203   2
  -6   9   1 1478.94 70.5248   4
   6  -9   1 1582.22 101.069   5
  -6  -9   3 241.036 33.1521   4
  -6   9   3 225.048 33.2451   2
  -6   9   3 262.453 26.0239   7
  -6  -9   5 1453.57 71.2460   4
  -6   9   5 1506.02 84.9286   2
   6  -9   5 1361.69 85.3835   2
  -6   9   5 1382.52 56.3874   7
   6  -9   5 1303.23 97.1898   7
   6  -9   5 1585.53 101.103   5
  -6   9   5 1284.17 80.5175   5
  -6   9   7 2328.61 107.632   2
   6  -9   7 2016.53 108.699   2
   6   9   7 1854.29 121.358   4
  -6  -9   7 2264.88 86.7772   4
   6  -9   7 2310.31 125.495   5
  -6   9   7 2291.66 71.4446   7
  -6   9   7 2209.66 107.173   5
   6  -9   7 2566.69 141.955   7
   6  -9   9 320.993 52.2352   1
   6  -9   9 254.815 41.7691   2
   6   9   9 233.323 56.1045   3
  -6   9   9 311.111 41.8912   2
   6   9   9 155.916 41.8489   4
  -6  -9   9 338.758 31.2756   4
  -6   9   9 314.101 23.0011   7
   6  -9   9 373.821 59.9228   7
   6  -9  11 451.930 55.8202   2
   6  -9  11 405.437 57.7507   1
   6   9  11 388.395 72.2801   3
  -6   9  11 544.258 56.6216   2
  -6  -9  11 450.395 34.6645   4
   6   9  11 399.136 65.4892   4
  -6   9  11 512.642 27.8909   7
  -6   9  11 419.800 48.2616   5
   6  -9  11 468.767 69.0470   7
  -6  -9  13 2562.39 81.6585   4
   6  -9  13 2265.18 80.7974   4
   6   9  13 1429.95 126.857   4
   6  -9  13 2081.46 128.180   1
   6   9  13 1725.72 153.335   3
  -6   9  13 2416.72 121.795   2
  -6   9  13 2209.82 55.3719   7
   6  -9  13 2389.05 134.599   6
  -6   9  13 1944.95 101.091   5
  -6   9  13 2260.28 62.3186   7
  -6  -9  15 834.444 44.1183   4
   6  -9  15 752.427 45.4933   4
   6   9  15 435.825 72.5551   4
   6   9  15 600.814 96.1627   3
  -6   9  15 584.254 22.7349   7
   6   9  15 923.769 97.7028   9
   6  -9  15 678.059 67.1297   9
   6  -9  15 828.123 81.9635   6
   6  -9  17 434.546 60.1588   2
   6   9  17 343.130 79.8947   3
  -6  -9  17 430.985 31.9645   4
   6   9  17 274.086 63.0392   4
   6  -9  17 443.559 36.3010   4
   6  -9  17 541.276 69.4721   6
   6  -9  19 758.829 78.0379   2
   6  -9  19 810.929 48.1130   4
   6  10 -18 723.274 101.478   1
  -6 -10 -18 528.817 54.7584   7
   6 -10 -18 540.718 85.9081   9
   6  10 -18 681.491 83.5619   9
  -6 -10 -18 575.043 53.8767   5
  -6 -10 -16 1396.71 83.4364   7
   6 -10 -16 1307.11 124.240   9
   6  10 -16 1700.66 126.150   9
   6  10 -16 1608.74 131.844   8
   6 -10 -16 1623.65 110.582   6
   6  10 -14 108.977 41.4750   1
  -6  10 -14 156.604 60.6562   3
   6  10 -14 123.824 45.9357   8
   6 -10 -14 109.313 42.1938   9
   6  10 -14 110.529 38.3508   9
   6 -10 -14 129.926 38.1594   6
  -6  10 -12 1057.10 70.5652   4
   6  10 -12 972.021 102.032   8
   6  10 -12 1047.66 87.1081   9
   6 -10 -12 821.647 87.9652   9
   6 -10 -12 1075.36 86.9305   6
  -6  10 -10 3356.26 117.698   4
  -6  10 -10 3658.79 192.881   3
   6  10 -10 3209.32 188.705   8
  -6  10  -8 985.884 93.1897   3
  -6  10  -8 936.940 55.5957   4
   6  10  -8 871.364 71.9367   1
  -6  10  -8 787.518 55.7102   8
  -6  10  -8 765.265 65.0699   7
   6  10  -8 756.023 93.2448   8
  -6  10  -8 876.990 67.7029   5
   6 -10  -8 943.516 79.8943   5
  -6  10  -6 2433.19 90.7121   4
  -6  10  -6 2335.35 99.7204   8
  -6  10  -6 2570.66 112.049   7
   6  10  -6 2527.24 180.813   8
  -6  10  -6 2452.31 114.051   5
   6 -10  -6 2746.99 137.091   5
  -6  10  -4 4181.41 120.180   4
  -6 -10  -4 4303.25 205.855   4
   6  10  -4 3694.97 110.345   4
   6  10  -4 3180.40 216.286   8
  -6  10  -4 3369.78 134.234   8
  -6  10  -4 3482.78 127.764   7
  -6  10  -4 3453.64 139.287   5
   6 -10  -4 3904.05 168.355   5
  -6  10  -2 2142.03 115.410   8
   6 -10  -2 2617.50 133.570   5
   6  10   0 4636.94 163.074   3
  -6  10   0 5018.20 168.313   2
  -6  10   0 5034.70 142.162   4
   6 -10   0 4761.38 192.327   5
  -6 -10   2 2888.46 123.552   4
  -6  10   2 2803.39 118.142   2
   6 -10   2 2510.29 134.085   1
   6 -10   2 2186.15 109.144   2
  -6  10   2 2385.24 85.5128   7
   6 -10   2 2926.42 143.154   5
  -6 -10   4 3566.00 127.091   4
   6 -10   4 2839.99 129.989   2
  -6  10   4 3572.56 137.303   2
  -6  10   4 3284.57 95.0340   7
   6 -10   4 3884.89 167.393   5
  -6  10   4 3138.44 135.056   5
  -6 -10   6 2825.23 101.976   4
   6  10   6 2241.39 133.684   4
  -6  10   6 2817.29 123.343   2
   6 -10   6 2477.06 121.843   2
  -6  10   6 2516.36 74.3556   7
  -6  10   6 2545.80 120.950   5
   6 -10   6 2826.00 143.030   5
   6 -10   6 2672.83 144.357   7
  -6 -10   8 974.113 53.2274   4
   6  10   8 743.010 81.4366   4
  -6  10   8 1028.05 74.2460   2
   6 -10   8 1021.57 78.4167   2
   6 -10   8 990.760 87.4878   1
  -6  10   8 998.632 37.2144   7
   6 -10   8 1204.83 93.3155   5
   6 -10   8 1225.39 104.272   7
   6 -10  10 2849.21 151.757   1
  -6  10  10 3235.94 136.952   2
  -6 -10  10 3097.18 95.5409   4
   6 -10  10 3205.47 153.946   5
   6 -10  10 3218.93 172.262   7
   6 -10  12 1037.32 92.2425   1
  -6  10  12 1245.93 87.6897   2
  -6 -10  12 1173.10 52.0035   4
   6  10  12 810.274 94.5483   4
  -6  10  12 949.566 74.3315   5
   6 -10  12 1454.16 120.941   7
   6  10  14 99.7162 39.8759   4
  -6 -10  14 172.011 20.2745   4
   6 -10  14 167.969 38.7345   2
   6  10  14 90.7809 46.0807   3
   6 -10  14 168.123 36.7749   9
   6  10  14 195.043 52.1243   9
   6 -10  14 221.426 45.9211   6
   6 -10  16 1493.35 104.087   2
   6  10  16 1023.47 128.851   3
  -6 -10  16 1409.98 52.1898   4
   6  10  16 814.963 104.575   4
   6 -10  16 1527.04 111.550   6
   6 -10  18 603.095 69.3849   2
   6 -10  18 671.192 76.9181   6
   6  11 -19 679.100 105.982   1
   6  11 -17 256.244 65.5065   1
  -6 -11 -17 124.446 28.9057   7
   6 -11 -17 192.851 52.8262   9
   6  11 -17 217.190 49.1101   9
   6 -11 -17 161.532 44.7369   6
   6  11 -15 153.528 54.1758   1
   6  11 -15 108.230 37.6866   9
   6  11 -15 124.396 46.7271   8
   6 -11 -15 114.066 43.7428   9
   6 -11 -15 148.307 43.4709   6
   6  11 -13 1289.41 121.050   8
   6 -11 -13 1091.01 104.500   9
   6  11 -13 1236.49 98.6361   9
   6 -11 -13 1433.51 104.589   6
  -6  11 -11 239.669 32.5517   4
   6  11 -11 217.886 57.0184   8
   6  11 -11 180.091 40.4272   9
   6 -11 -11 212.172 46.3628   9
  -6  11  -9 478.114 70.1737   3
  -6  11  -9 409.221 37.1744   4
   6  11  -9 383.328 69.4103   8
   6 -11  -9 267.235 47.0586   9
  -6  11  -9 382.659 48.3084   5
  -6  11  -7 1186.45 61.2207   4
  -6  11  -7 1142.02 71.8936   8
  -6  11  -7 1072.67 76.8587   7
   6  11  -7 1173.60 126.159   8
   6 -11  -7 1203.90 95.0909   5
  -6  11  -7 1116.22 78.9260   5
  -6  11  -5 496.236 39.3358   4
   6  11  -5 463.182 34.1046   4
  -6  11  -5 396.490 45.2288   8
   6  11  -5 494.546 91.3458   8
   6 -11  -5 468.766 61.3494   5
   6  11  -3 2105.61 83.0809   4
  -6  11  -3 2075.24 82.2125   4
   6  11  -3 1801.45 164.296   8
  -6  11  -3 1749.52 109.508   8
   6 -11  -3 2236.61 129.233   5
  -6  11  -3 2024.36 107.555   5
  -6 -11  -1 574.250 69.5880   4
   6 -11  -1 500.056 61.9213   1
   6  11  -1 515.243 45.6075   3
  -6  11  -1 546.312 55.1445   2
  -6  11  -1 433.580 40.9137   7
   6 -11  -1 548.129 65.4918   5
  -6 -11   1 532.451 60.6631   4
   6 -11   1 456.021 60.2242   1
  -6  11   1 611.733 57.1411   2
   6  11   1 564.275 62.3520   3
   6 -11   1 569.876 54.2729   2
  -6  11   1 533.567 41.3196   7
   6 -11   1 629.897 70.2698   5
  -6 -11   3 1943.81 99.8411   4
   6 -11   3 1795.79 118.672   1
  -6  11   3 1921.33 99.9554   2
   6 -11   3 1618.04 94.9134   2
  -6  11   3 1922.26 72.7065   7
   6 -11   3 2083.06 124.891   5
  -6  11   3 1974.66 107.014   5
   6  11   5 248.680 45.6594   4
  -6 -11   5 358.898 39.7534   4
   6 -11   5 271.927 41.3094   2
  -6  11   5 322.635 43.6767   2
   6 -11   5 300.224 50.4712   1
  -6  11   5 310.649 25.6336   7
   6 -11   5 333.223 53.5377   5
  -6  11   5 344.376 47.3304   5
  -6 -11   7 1312.81 67.2289   4
   6  11   7 1126.62 97.5388   4
  -6  11   7 1303.94 84.0557   2
   6 -11   7 1208.96 84.8537   2
   6 -11   7 1184.41 95.8111   1
  -6  11   7 1244.07 42.5180   7
  -6  11   7 1135.71 84.3381   5
   6 -11   7 1311.86 101.089   5
   6 -11   7 1464.93 112.387   7
  -6  11   9 368.178 48.4823   2
   6 -11   9 313.360 46.4747   2
   6 -11   9 280.819 52.8271   1
  -6 -11   9 350.170 31.3002   4
   6  11   9 266.741 54.2495   4
   6 -11   9 333.996 60.9048   7
  -6 -11  11 134.198 18.7460   4
   6  11  11 105.048 42.2539   4
   6 -11  11 175.298 41.9612   5
   6 -11  11 190.445 51.7369   7
  -6 -11  13 1241.65 46.8437   4
   6 -11  13 1392.41 98.2807   2
   6 -11  13 1253.94 84.5427   9
  -6 -11  15 87.9474 11.4623   4
   6  11  15 52.6840 36.3784   4
   6 -11  15 116.083 35.5154   2
   6  11  15 54.1103 44.5790   3
   6 -11  15 82.3837 28.2714   9
   6 -11  15 84.9651 35.9775   6
   6 -11  17 149.273 38.8382   2
   6 -11  17 134.812 44.3345   6
   6  12 -18 85.4964 57.6342   1
   6  12 -16 1029.70 94.5470   9
   6 -12 -16 973.035 91.9256   6
   6  12 -14 217.938 56.8642   1
   6  12 -14 176.029 55.1493   8
   6 -12 -14 188.401 49.6253   9
   6  12 -14 217.777 46.8081   9
   6 -12 -14 238.789 49.1426   6
  -6  12 -12 265.429 34.2572   4
   6  12 -12 285.195 57.0205   1
  -6  12 -12 359.551 69.1248   3
   6  12 -12 176.531 53.9564   8
   6 -12 -12 251.641 51.5505   9
   6  12 -12 241.258 46.7207   9
   6 -12 -12 211.825 48.1902   6
  -6  12 -10 1130.43 61.7996   4
   6  12 -10 1034.18 113.268   8
   6 -12 -10 1021.47 89.1516   9
   6 -12 -10 1106.59 92.7945   5
  -6  12  -8 765.952 48.4778   4
   6  12  -8 598.823 93.7001   8
   6 -12  -8 533.260 61.6820   9
  -6  12  -6 1477.50 68.1088   4
   6  12  -6 1457.88 150.214   8
   6 -12  -6 1680.43 117.112   5
  -6  12  -6 1360.70 92.0179   5
   6  12  -4 444.007 35.2679   4
  -6  12  -4 395.849 35.7858   4
   6  12  -4 355.131 79.9429   8
  -6  12  -4 365.027 51.2243   8
   6 -12  -4 439.062 61.2410   5
  -6  12  -4 368.187 48.7587   5
  -6  12  -2 417.981 37.0209   4
   6  12  -2 511.345 36.5155   3
   6  12  -2 419.659 40.1546   4
   6  12  -2 334.601 18.0227   2
  -6  12  -2 320.424 53.9907   8
  -6  12  -2 445.402 43.9352   7
   6 -12  -2 427.964 60.7868   5
  -6  12  -2 401.108 51.4474   5
  -6  12   0 3161.77 108.694   4
  -6  12   0 3261.86 137.095   2
   6  12   0 2987.83 134.770   3
  -6  12   0 2831.88 106.343   7
   6 -12   0 2887.02 153.088   5
  -6 -12   2 401.042 53.6063   4
   6 -12   2 395.436 58.6888   1
  -6  12   2 446.888 50.2776   2
   6  12   2 315.047 54.1569   3
   6 -12   2 380.537 47.5813   2
  -6  12   2 498.646 38.9349   7
   6 -12   2 563.170 67.8286   5
   6 -12   4 364.794 56.3568   1
  -6  12   4 420.796 49.1288   2
   6 -12   4 384.427 47.9526   2
  -6 -12   4 426.687 47.9219   4
   6  12   4 450.857 57.6157   4
  -6  12   4 422.839 54.0963   5
   6 -12   4 345.011 54.8689   5
   6 -12   6 1354.68 90.8041   2
  -6  12   6 1607.93 96.5437   2
   6 -12   6 1302.03 105.442   1
  -6 -12   6 1517.20 78.3024   4
   6  12   6 1445.87 107.410   4
   6 -12   6 1534.14 111.804   5
  -6  12   6 1354.08 95.2341   5
  -6  12   8 699.172 65.8219   2
   6 -12   8 629.296 62.5795   2
   6 -12   8 636.060 74.9859   1
   6  12   8 624.624 76.5376   4
  -6 -12   8 628.763 44.0439   4
   6  12  10 838.876 93.1041   4
  -6 -12  10 1023.44 47.9591   4
   6 -12  10 1133.62 97.5313   5
   6 -12  10 1335.93 115.247   7
   6  12  12 160.864 50.7639   4
  -6 -12  12 139.160 12.9352   4
   6 -12  12 196.084 41.5284   2
   6  12  12 251.877 54.4472   9
   6 -12  12 189.800 35.6747   9
   6 -12  12 257.147 49.9361   5
   6  12  14 119.662 47.2369   4
   6 -12  14 211.408 42.7579   2
   6 -12  14 197.280 38.8159   9
   6  12  14 204.756 55.1615   9
   6 -12  16 933.232 83.3751   2
   6 -12  16 932.122 92.1534   6
   6  13 -19 1082.65 136.692   1
   6  13 -17 315.795 74.8184   1
   6 -13 -17 236.593 54.9015   6
   6 -13 -15 506.965 69.4550   6
   6  13 -13 2341.76 169.717   8
   6  13 -13 2473.94 135.184   9
   6 -13 -13 2034.44 137.283   9
   6 -13 -13 2544.86 149.534   6
  -6  13 -11 439.321 38.0430   4
   6 -13 -11 384.345 60.5022   5
  -6  13 -11 499.440 77.2687   3
   6  13 -11 370.098 75.6104   8
   6 -13 -11 415.595 62.3211   9
   6  13 -11 476.697 60.0659   9
  -6  13 -11 440.397 51.6556   8
  -6  13  -9 513.198 39.5395   4
   6  13  -9 678.927 80.9630   1
   6  13  -9 501.996 88.1696   8
   6 -13  -9 486.654 60.2674   9
   6 -13  -9 542.178 70.8514   5
  -6  13  -7 3528.35 109.146   4
   6  13  -7 3403.09 227.686   8
   6 -13  -7 3411.44 148.367   9
   6 -13  -7 3742.47 182.281   5
  -6  13  -5 1681.27 72.6588   4
   6  13  -5 1598.93 62.7948   4
   6  13  -5 1532.12 159.739   8
   6 -13  -5 1677.46 121.527   5
   6  13  -3 461.891 39.3684   4
  -6  13  -3 471.832 38.8909   4
   6 -13  -3 510.053 59.6166   1
   6  13  -3 432.045 90.5754   8
   6 -13  -3 441.111 64.6627   5
   6  13  -1 3503.70 131.183   3
  -6  13  -1 3476.26 146.521   2
   6  13  -1 3049.92 77.7506   2
  -6  13  -1 3462.80 113.690   4
  -6  13  -1 3221.58 150.334   5
   6 -13  -1 3178.62 165.939   5
  -6  13   1 3170.16 138.702   2
   6  13   1 3069.90 152.559   3
  -6  13   1 3285.67 115.227   4
  -6  13   1 3160.84 149.391   5
   6 -13   1 3417.78 169.340   5
   6 -13   3 570.097 76.1470   1
  -6  13   3 534.359 56.9382   2
  -6  13   3 492.033 59.6507   5
   6 -13   3 423.328 63.3428   5
   6 -13   5 1832.62 127.088   1
  -6  13   5 1685.54 101.104   2
   6 -13   5 1610.35 98.7606   2
   6 -13   5 1687.47 120.527   7
   6 -13   5 1655.23 119.216   5
   6  13   7 2977.79 165.821   4
   6 -13   7 3394.89 172.258   5
   6 -13   7 3393.79 179.444   7
   6  13   9 503.409 71.3764   4
   6  13  11 448.247 74.4605   4
   6 -13  11 528.018 60.4257   2
   6 -13  11 469.461 49.3502   9
   6 -13  11 466.445 66.4144   5
   6  13  13 1673.44 144.588   4
   6  13  13 2479.45 161.212   9
   6 -13  13 1895.09 106.011   9
   6 -13  13 2231.03 122.663   2
   6 -13  15 506.363 59.1936   9
   6 -13  15 658.289 68.9139   2
   6  14 -14 294.256 68.0515   1
   6 -14 -12 372.625 59.0616   9
   6  14 -12 405.946 56.5235   9
  -6  14 -12 441.376 53.0574   8
  -6  14 -10 3078.57 95.8250   4
  -6  14 -10 3009.17 136.147   8
   6  14 -10 3124.19 204.597   8
   6 -14 -10 2949.97 149.200   9
  -6  14  -8 902.765 49.8413   4
  -6  14  -8 841.595 73.5909   8
   6  14  -8 976.562 124.480   8
   6 -14  -8 957.379 78.0328   9
  -6  14  -6 659.290 44.3655   4
   6 -14  -6 744.808 63.1848   9
   6  14  -6 663.357 113.092   8
   6  14  -6 748.425 56.8237   9
   6 -14  -6 817.094 88.1745   5
  -6  14  -4 2675.14 94.6788   4
   6  14  -4 2610.05 88.7443   4
   6 -14  -4 2742.24 160.173   5
   6  14  -2 1814.63 51.8771   2
  -6  14  -2 2011.88 83.2125   4
   6 -14  -2 1979.85 133.669   5
  -6  14   0 1681.50 102.181   2
   6  14   0 1736.03 107.379   3
   6  14   0 1557.55 55.8302   2
   6 -14   0 1852.15 123.979   1
  -6  14   0 1717.01 80.1512   4
   6 -14   0 1567.80 117.454   5
   6 -14   2 2215.07 145.386   1
  -6  14   2 1976.82 109.964   2
   6  14   2 1856.40 108.530   4
   6 -14   2 1785.95 125.175   5
  -6  14   4 2833.67 134.343   2
   6  14   4 2715.89 141.696   4
   6 -14   4 2438.15 150.999   5
   6 -14   6 826.231 88.1754   7
   6 -14   8 873.893 74.4624   2
   6 -14   8 1065.05 105.557   7
   6  14  10 2676.36 173.433   4
   6 -14  10 2942.95 119.973   9
   6  14  12 304.950 68.0008   4
   6  14  12 458.300 71.3250   9
   6 -14  12 288.860 42.6254   9
   6 -14  12 322.525 50.4955   2
   6  14  14 296.229 65.0214   9
   6 -14  14 172.736 37.8223   9
   6 -14  14 211.458 43.3071   2
  -6 -15 -13 727.405 51.1305   7
  -6  15 -11 290.710 46.2918   8
   6  15 -11 315.496 46.5122   9
  -6  15  -9 908.007 46.1806   4
  -6  15  -9 775.288 72.4087   8
   6  15  -9 937.716 117.706   8
   6 -15  -9 936.962 75.0566   9
   6  15  -9 1119.75 106.359   1
  -6  15  -7 1071.53 53.8514   4
  -6  15  -7 1076.91 88.5948   8
   6 -15  -7 1104.61 76.5919   9
   6  15  -7 1131.09 72.1663   9
   6  15  -7 1040.90 135.918   8
  -6  15  -5 719.431 47.2122   4
   6  15  -5 803.447 41.8072   4
  -6  15  -5 768.532 80.5797   8
   6 -15  -5 765.531 58.7224   9
   6  15  -5 773.793 54.8553   9
   6  15  -5 669.082 117.346   8
   6  15  -3 2150.52 84.1341   4
  -6  15  -3 2137.76 84.5477   4
   6  15  -3 1849.98 189.659   8
   6 -15  -3 2064.63 88.1640   9
   6  15  -1 1017.19 42.8899   2
   6  15  -1 1288.86 80.8655   3
  -6  15  -1 1154.94 86.8279   2
  -6  15  -1 1124.87 64.1241   4
   6  15   1 943.179 46.9361   2
   6 -15   1 1089.65 94.4258   1
   6  15   1 1012.04 73.5112   4
  -6  15   1 1033.74 63.9019   4
   6  15   3 2161.57 120.470   4
   6  15   5 828.247 82.1806   4
   6 -15   5 899.124 93.1735   7
   6  15   7 1089.67 101.408   4
   6 -15   7 1070.06 83.4190   2
   6 -15   7 933.794 55.8545   9
   6 -15   7 1206.76 112.456   7
   6 -15   9 905.289 78.7342   2
   6 -15   9 756.222 56.5710   9
   6 -15  11 308.356 47.6724   2
   6 -15  11 253.657 37.6354   9
   6 -15  13 945.625 80.1716   2
   6 -15  13 828.033 67.5200   9
  -6  16 -12 53.2668 29.2402   8
  -6 -16 -12 34.5609 18.8352   7
  -6  16 -10 580.257 64.9342   8
  -6  16  -8 141.537 19.6373   4
   6  16  -8 184.898 32.8689   9
  -6  16  -8 112.582 35.3072   8
  -6  16  -6 20.7878 14.3121   4
   6  16  -6 69.6357 56.3098   8
   6 -16  -6 42.6082 19.8733   9
   6  16  -6 15.2990 17.8534   9
  -6  16  -6 13.5096 27.9357   8
   6  16  -6 50.8806 43.1077   1
  -6  16  -4 730.943 47.6291   4
   6  16  -4 675.732 41.3630   4
   6  16  -4 647.428 119.266   8
   6 -16  -4 614.808 43.3955   9
   6  16  -4 745.422 46.7190   9
  -6  16  -4 592.048 78.6515   8
  -6  16  -2 209.653 29.1010   4
  -6  16  -2 222.921 57.5748   8
   6  16  -2 127.110 64.6834   8
   6 -16  -2 245.579 25.7117   9
   6  16  -2 247.394 25.4046   9
   6  16  -2 95.2378 39.7784   1
   6  16  -2 184.978 17.0476   2
   6  16  -2 225.694 28.6703   3
   6  16   0 217.054 35.0346   4
  -6  16   0 229.061 32.3551   4
   6  16   0 219.040 22.2381   2
   6  16   0 184.534 47.5556   1
   6  16   0 238.967 46.2686   3
   6  16   2 272.578 44.2898   4
  -6  16   2 263.632 36.0787   4
   6  16   2 166.737 47.8971   1
   6  16   2 284.263 28.3170   2
   6  16   4 538.177 64.9165   4
   6 -16   4 506.085 32.2686   9
   6  16   6 40.4526 30.4639   4
   6 -16   6 57.0637 16.7903   9
   6  16   6 52.7032 25.2471   9
   6 -16   6 69.6392 38.4042   7
   6  16   8 172.120 50.9798   4
   6  16   8 241.425 43.3942   9
   6 -16   8 164.335 27.0414   9
   6 -16   8 148.520 36.3689   2
   6  16  10 446.320 74.7584   4
   6  16  10 630.722 69.8131   9
   6 -16  10 437.097 43.6470   9
   6 -16  10 537.617 61.4948   2
   6  16  12 92.9302 41.7229   9
   6 -16  12 36.5871 25.2155   2
  -6  17 -13 702.630 72.8770   8
  -6  17 -11 206.363 44.6798   8
  -6  17  -9 160.361 41.2578   8
  -6  17  -7 456.359 31.6088   4
  -6  17  -7 523.166 68.3481   8
  -6  17  -5 394.674 34.4191   4
  -6  17  -5 508.784 71.6295   8
  -6  17  -3 860.458 53.5414   4
   6  17  -3 808.425 137.108   8
  -6  17  -3 665.497 91.7226   8
  -6  17  -1 269.904 34.0177   4
  -6  17  -1 246.810 63.7883   8
   6  17  -1 254.511 23.6072   2
   6  17  -1 245.943 57.0053   1
   6  17  -1 329.493 43.9847   3
   6  17   1 265.115 41.2352   4
  -6  17   1 272.324 35.9033   4
   6  17   1 230.686 25.2461   2
   6  17   3 924.892 78.6413   4
   6  17   3 824.307 38.3198   9
   6  17   3 832.885 51.4689   2
   6  17   5 430.366 61.4184   4
   6 -17   5 331.178 21.5838   9
   6  17   7 619.376 78.2047   4
   6  17   7 670.571 54.1215   9
   6 -17   7 552.844 37.1810   9
   6  17   9 173.622 53.1165   4
   6  17   9 211.140 39.2067   9
   6 -17  11 147.445 37.5686   2
  -6  18 -12 420.539 61.1094   8
  -6  18 -10 412.402 59.9714   8
  -6  18  -8 281.019 52.7191   8
  -6  18  -6 1311.68 109.915   8
  -6  18  -4 274.266 29.5326   4
   6  18  -4 251.380 23.5180   4
  -6  18  -4 245.198 58.0253   8
   6  18  -2 386.677 31.7210   3
  -6  18  -2 368.561 36.5943   4
  -6  18  -2 284.714 69.0559   8
   6  18   0 2589.22 109.688   4
  -6  18   0 2540.16 102.265   4
  -6  18   0 2114.95 167.380   8
   6  18   0 2329.76 80.1255   2
   6  18   0 2890.44 145.048   3
   6  18   2 424.570 52.0348   4
  -6  18   2 360.454 41.6942   4
   6  18   2 361.834 33.8954   2
   6  18   4 282.797 49.6337   4
   6  18   4 204.228 29.3709   2
   6  18   6 1619.26 118.178   4
   6  18   8 242.382 57.7909   4
  -6  19 -11 558.171 69.0510   8
  -6  19  -9 329.855 56.8289   8
  -6  19  -7 441.791 68.9181   8
  -6  19  -5 520.344 78.2056   8
   6  19  -3 220.885 24.9263   4
  -6  19  -3 266.207 68.9696   8
   6  19  -1 413.057 42.8061   4
  -6  19  -1 428.118 40.8459   4
  -6  19  -1 461.565 87.3516   8
   6  19   1 407.444 48.3122   4
  -6  19   1 446.674 46.3008   4
   6  19   3 220.563 42.6796   4
   6  19   5 535.454 68.5228   4
   6  19   5 565.136 48.2820   2
   6  19   7 412.734 68.0774   4
  -6  20  -8 715.998 81.9907   8
  -6  20  -6 1738.66 129.472   8
  -6  20  -4 69.8304 45.5391   8
  -6  20  -2 326.673 78.2391   8
  -6  20   0 2587.07 198.293   8
   6  20   2 456.035 51.9136   4
   6  20   4 79.7452 34.6229   4
   7   0 -19 953.468 116.896   9
  -7   0 -19 975.809 44.1202   5
   7   0 -17 2690.94 177.257   9
  -7   0 -17 2640.28 133.370   7
  -7   0 -17 2509.29 84.9949   5
  -7   0 -15 851.975 71.7509   7
   7   0 -15 1034.70 103.359   9
  -7   0 -15 859.176 51.0508   5
  -7   0 -13 3719.32 143.633   7
  -7   0 -13 3590.86 118.243   5
  -7   0 -11 5081.96 214.398   4
  -7   0 -11 3833.47 143.034   7
  -7   0  -9 1718.03 110.686   4
  -7   0  -7 8625.41 292.328   3
  -7   0  -7 8236.69 232.281   4
  -7   0  -5 4898.27 197.127   3
  -7   0  -5 4754.47 161.907   4
   7   0  -3 182.842 22.3252   2
  -7   0  -3 178.858 29.5671   4
  -7   0  -3 232.422 40.5782   3
   7   0  -1 5819.12 156.118   2
  -7   0  -1 6056.67 169.828   4
   7   0   1 6418.92 180.552   2
  -7   0   1 6796.88 178.047   4
  -7   0   3 48.2217 16.6313   4
  -7   0   5 4009.09 126.947   4
  -7   0   5 3912.00 116.997   2
  -7   0   5 3751.05 155.090   8
  -7   0   5 3769.52 151.193   6
  -7   0   7 7741.50 191.500   4
  -7   0   7 7359.24 231.115   8
  -7   0   7 7046.63 218.472   6
   7   0   9 1149.33 81.7765   4
  -7   0   9 1201.37 67.2803   4
  -7   0   9 1071.95 74.5402   6
   7   0  11 3847.27 161.066   4
  -7   0  11 4129.99 125.307   2
  -7   0  11 4260.53 170.790   8
  -7   0  11 3846.17 146.160   6
   7   0  13 4271.44 175.302   4
  -7   0  13 4141.52 131.139   2
  -7   0  13 4209.42 177.119   8
  -7   0  13 3925.56 140.278   5
  -7   0  15 857.441 58.1885   2
   7   0  15 905.380 58.5133   8
  -7   0  15 921.183 85.1563   8
  -7   0  15 763.524 56.7449   5
  -7   0  17 2743.81 112.361   2
   7   0  17 2746.97 113.330   8
   7   0  19 1178.66 99.1307   4
  -7   0  19 1060.27 71.0189   2
   7   0  19 1048.26 74.9191   8
  -7   0  19 858.823 47.8857   5
   7   0  21 682.985 77.7115   4
  -7   0  21 510.496 53.4168   2
  -7  -1 -20 46.6053 31.3182   7
  -7   1 -18 486.107 60.4062   7
   7  -1 -18 423.058 77.3353   9
   7   1 -18 448.194 77.4056   9
  -7  -1 -18 473.528 32.3110   5
  -7   1 -18 465.408 34.7746   5
  -7  -1 -16 2989.94 136.897   7
   7  -1 -16 3203.69 185.077   9
   7   1 -16 3248.14 187.197   9
  -7   1 -16 3077.67 142.076   7
  -7  -1 -16 2913.43 96.3382   5
  -7   1 -16 2822.43 95.7267   5
  -7   1 -14 1220.04 118.339   4
  -7   1 -14 1003.61 74.6388   7
  -7  -1 -14 860.595 68.9076   7
   7  -1 -14 1025.81 100.572   9
   7   1 -14 1037.70 97.9423   9
  -7  -1 -14 990.313 56.4951   5
  -7   1 -14 862.047 52.9679   5
  -7  -1 -12 1789.65 136.141   4
  -7  -1 -12 1156.64 68.4356   5
  -7   1 -12 1644.07 121.363   4
  -7  -1 -12 1303.33 81.2354   7
  -7   1 -12 1322.84 82.0035   7
  -7   1 -12 1208.33 64.2733   5
  -7   1 -10 7257.07 240.774   4
  -7  -1 -10 7393.27 257.488   4
  -7   1 -10 5096.77 155.548   5
  -7  -1 -10 5361.17 164.393   6
  -7   1  -8 6303.85 252.909   3
  -7   1  -8 6391.84 203.048   4
  -7  -1  -8 6537.44 219.793   4
  -7  -1  -8 4932.85 165.553   6
  -7   1  -8 4650.88 150.007   5
  -7   1  -6 5205.50 213.453   3
  -7  -1  -6 5439.00 216.079   3
  -7   1  -6 5583.31 176.657   4
  -7  -1  -6 5288.17 178.183   4
  -7   1  -4 6624.50 226.682   3
  -7   1  -4 6654.01 191.008   4
  -7  -1  -4 6639.80 200.519   4
  -7  -1  -4 6701.17 226.905   3
   7  -1  -4 6433.81 156.196   2
   7   1  -4 6611.08 146.146   2
   7   1  -4 6790.53 167.250   8
  -7  -1  -4 5989.24 197.466   6
  -7   1  -2 7785.48 203.321   4
  -7  -1  -2 8658.21 219.580   4
   7   1  -2 7758.30 186.193   8
   7  -1  -2 7665.27 190.474   2
   7   1  -2 8160.88 182.208   2
  -7  -1  -2 8345.34 237.113   3
  -7   1   0 12662.5 271.308   4
  -7  -1   0 12257.3 271.425   4
  -7  -1   0 12958.5 292.440   3
   7  -1   0 12037.7 267.259   2
   7   1   0 12047.6 262.170   2
  -7  -1   2 8210.04 199.950   4
  -7   1   2 8276.54 198.714   4
  -7   1   4 6114.10 164.004   4
  -7  -1   4 5976.40 162.463   4
  -7   1   4 6120.63 160.537   2
  -7   1   4 5530.47 177.107   8
  -7   1   4 5899.37 183.619   6
  -7  -1   4 5619.04 202.706   6
  -7   1   6 4869.12 144.222   4
  -7  -1   6 5121.83 146.500   4
   7  -1   6 4192.77 152.519   4
  -7   1   6 5022.12 139.736   2
  -7  -1   6 4900.51 196.945   8
  -7   1   6 5156.46 163.384   8
  -7  -1   6 4450.29 175.398   6
  -7   1   6 4543.61 159.759   6
  -7  -1   8 5856.75 159.647   4
   7  -1   8 5153.59 174.857   4
  -7   1   8 5202.83 156.612   4
  -7   1   8 5538.92 174.404   8
  -7  -1   8 5682.41 214.668   8
  -7  -1   8 5190.58 188.306   6
   7  -1  10 5390.70 187.223   4
   7   1  10 4977.78 191.230   4
  -7  -1  10 5639.25 160.099   4
  -7  -1  10 5621.07 146.748   2
  -7   1  10 5902.77 188.053   8
  -7  -1  10 6245.06 225.713   8
   7  -1  10 5604.61 138.104   8
   7  -1  12 1636.53 99.5893   4
   7   1  12 1547.04 104.654   4
  -7  -1  12 1648.50 72.7379   2
  -7   1  12 1554.88 76.0125   2
   7  -1  12 1575.99 70.7193   8
  -7   1  12 1802.11 104.185   8
  -7  -1  12 1808.48 119.156   8
  -7  -1  12 1533.44 90.5577   6
  -7   1  12 1506.74 83.1337   5
   7   1  14 1077.97 91.1223   4
   7   1  14 1100.17 110.503   3
  -7   1  14 1072.92 66.7528   2
  -7  -1  14 1013.61 59.4233   2
   7  -1  14 1031.46 61.6409   8
  -7  -1  14 1099.32 97.9692   8
  -7   1  14 920.471 61.4400   5
   7  -1  16 3403.92 155.945   4
   7   1  16 2817.43 183.561   3
  -7   1  16 3048.06 120.025   2
  -7  -1  16 2931.42 110.498   2
   7  -1  16 2873.71 117.881   8
  -7  -1  16 3493.08 183.548   8
   7   1  16 2801.90 109.911   8
  -7   1  16 2639.00 103.833   5
  -7  -1  16 2856.59 113.558   5
   7  -1  18 569.635 65.8242   4
   7   1  18 551.204 70.2540   4
   7   1  18 498.867 81.5093   3
  -7   1  18 549.938 52.6841   2
  -7  -1  18 516.306 47.5998   2
   7   1  18 549.024 50.5766   8
   7  -1  18 523.350 53.3455   8
  -7  -1  18 464.275 39.1932   5
  -7   1  18 463.887 37.6883   5
   7  -1  20 58.4747 31.2473   4
   7   1  20 78.0971 37.1714   4
  -7  -1  20 54.7252 22.8813   2
  -7   1  20 148.993 31.5597   2
  -7   1  20 65.8204 29.4846   7
  -7   1  20 42.3835 12.5929   5
  -7  -1  20 48.0354 13.8887   5
  -7   2 -19 1605.31 112.731   7
  -7  -2 -19 1549.73 106.474   7
   7  -2 -19 1629.80 150.731   9
   7   2 -19 1849.82 150.407   9
  -7  -2 -19 1513.22 53.5147   5
  -7   2 -17 119.459 35.4184   7
   7   2 -17 114.147 45.1617   9
   7  -2 -17 175.858 54.6937   9
  -7  -2 -17 130.654 20.3082   5
  -7  -2 -15 884.540 70.6031   7
   7  -2 -15 873.575 96.8341   9
   7   2 -15 889.648 93.6603   9
  -7   2 -15 913.999 74.1328   7
  -7   2 -15 768.179 49.1995   5
  -7  -2 -15 753.742 49.3828   5
  -7  -2 -13 5700.65 268.522   4
   7   2 -13 5372.69 133.680   1
  -7   2 -13 3922.02 153.446   7
  -7  -2 -13 3977.98 152.553   7
  -7   2 -13 3802.41 125.349   5
   7   2 -11 2877.23 88.3902   1
  -7  -2 -11 2496.05 159.653   4
  -7   2 -11 2561.25 140.436   4
  -7   2  -9 4429.48 217.550   3
  -7   2  -9 4289.73 164.678   4
  -7  -2  -9 3953.42 184.164   4
  -7  -2  -9 3011.36 128.651   6
  -7   2  -9 3156.22 114.332   5
  -7  -2  -7 5551.77 199.221   4
  -7   2  -7 5779.54 181.745   4
  -7   2  -7 5558.14 226.681   3
   7   2  -7 5282.12 160.202   8
  -7  -2  -7 4454.34 168.974   6
  -7   2  -7 4434.87 145.093   5
  -7   2  -5 4829.61 193.345   3
  -7   2  -5 4593.78 150.699   4
  -7  -2  -5 4246.55 163.295   4
   7   2  -5 4640.29 145.238   8
  -7  -2  -5 3588.30 158.662   6
  -7   2  -5 3876.39 134.267   5
  -7   2  -3 9210.76 234.080   4
  -7  -2  -3 9587.22 250.176   4
   7   2  -3 9578.62 237.686   8
   7   2  -3 9522.72 193.572   2
  -7  -2  -3 10181.9 279.087   3
   7  -2  -3 9934.48 217.414   2
  -7   2  -1 3735.08 122.221   4
  -7  -2  -1 3764.41 133.855   4
   7   2  -1 3246.35 134.138   8
   7  -2  -1 3526.16 119.433   2
   7   2  -1 3476.74 109.418   2
  -7  -2  -1 3808.33 143.282   3
  -7  -2   1 3935.14 130.854   4
  -7   2   1 4037.22 126.225   4
  -7  -2   1 4102.68 136.477   3
  -7  -2   3 9244.55 215.675   4
  -7   2   3 9075.18 215.627   4
  -7   2   3 9155.50 216.353   2
  -7   2   5 4046.09 143.485   5
  -7   2   5 4310.30 134.019   4
   7  -2   5 3773.01 138.104   4
  -7  -2   5 4331.80 134.035   4
  -7   2   5 4405.80 134.574   2
  -7   2   5 4312.94 132.422   8
  -7  -2   5 3783.26 175.870   6
  -7   2   7 5141.44 154.552   4
  -7  -2   7 5691.36 155.044   4
   7  -2   7 5727.97 177.671   4
  -7   2   7 5398.87 151.410   2
  -7  -2   7 5875.70 233.657   8
   7  -2   7 5642.12 126.557   8
  -7   2   7 5706.09 162.454   8
  -7   2   7 4961.67 163.287   5
  -7  -2   7 4877.04 198.694   6
   7  -2   9 3626.66 139.928   4
  -7  -2   9 3883.75 123.960   4
  -7  -2   9 3423.88 101.980   2
   7  -2   9 3941.50 108.175   8
  -7   2   9 3779.83 131.593   8
  -7  -2   9 3913.15 192.534   8
  -7   2   9 3435.29 131.660   5
  -7  -2   9 3046.73 150.961   6
   7  -2  11 2335.53 114.288   4
   7   2  11 1986.96 121.351   4
  -7  -2  11 2080.38 77.2245   2
   7  -2  11 2175.75 85.3351   8
  -7   2  11 2212.01 103.966   8
  -7  -2  11 2529.37 153.173   8
  -7  -2  11 1879.94 110.742   6
  -7   2  11 2048.13 97.1480   5
   7   2  13 4202.10 184.795   4
  -7  -2  13 4547.69 141.943   4
   7   2  13 4428.57 223.622   3
  -7  -2  13 4362.89 125.516   2
  -7   2  13 4751.59 150.005   2
   7  -2  13 4328.21 138.573   8
  -7  -2  13 5114.88 225.476   8
  -7  -2  13 4084.27 161.247   6
  -7   2  13 3882.96 135.045   5
   7  -2  15 838.448 72.6076   4
   7   2  15 782.672 80.8882   4
   7   2  15 738.024 98.0967   3
  -7   2  15 871.381 63.3742   2
  -7  -2  15 852.166 53.0920   2
   7  -2  15 867.771 62.9169   8
  -7  -2  15 1023.30 104.344   8
  -7   2  15 806.958 56.5511   5
  -7  -2  15 712.556 60.1870   6
   7  -2  17 139.163 35.0968   4
  -7  -2  17 115.467 26.0429   5
   7   2  17 125.735 47.9858   3
   7  -2  17 148.950 45.1134   1
  -7   2  17 167.762 32.2302   2
   7  -2  17 127.568 31.7687   8
  -7   2  17 154.259 25.6122   5
   7  -2  19 1845.25 113.717   4
   7   2  19 1690.65 147.820   3
   7   2  19 1837.38 130.441   4
  -7   2  19 1640.42 94.8541   2
  -7  -2  19 1624.03 82.1481   2
   7  -2  19 1732.36 104.496   8
  -7   2  19 1549.41 61.9365   5
   7  -2  21 389.317 57.2315   4
  -7  -2  21 373.836 42.1435   2
  -7  -3 -20 3153.46 156.271   7
  -7   3 -18 1510.35 107.370   7
   7  -3 -18 1637.93 145.921   9
   7   3 -18 1791.30 143.838   9
  -7  -3 -18 1604.40 104.013   7
  -7   3 -18 1634.05 71.5881   5
  -7  -3 -18 1553.76 62.2879   5
   7   3 -16 635.430 55.9749   1
  -7   3 -16 658.594 68.1786   7
   7  -3 -16 734.504 93.3571   9
   7   3 -16 723.365 86.7084   9
  -7  -3 -16 647.725 45.9777   5
  -7   3 -16 684.824 46.7209   5
  -7   3 -14 3386.06 144.723   7
  -7  -3 -14 3377.81 138.888   7
   7  -3 -14 3563.57 192.037   9
   7   3 -14 3696.45 184.115   9
  -7  -3 -14 3329.03 120.472   6
  -7  -3 -12 4463.04 233.439   4
  -7  -3 -12 3023.01 131.305   7
  -7   3 -12 3100.37 133.831   7
   7   3 -12 5167.28 141.406   1
  -7   3 -10 4549.59 178.296   4
  -7  -3 -10 4719.85 219.483   4
  -7   3 -10 5029.77 243.955   3
  -7  -3  -8 4413.03 194.669   4
  -7   3  -8 4185.48 154.656   4
  -7   3  -8 4591.68 213.176   3
   7   3  -8 4069.69 153.947   8
  -7  -3  -6 4235.04 171.861   4
  -7   3  -6 4336.95 189.322   3
  -7   3  -6 4279.48 148.638   4
   7   3  -6 3932.37 148.103   8
   7  -3  -6 4021.92 181.298   6
  -7   3  -4 6657.65 222.136   3
  -7   3  -4 6515.92 180.184   4
  -7  -3  -4 6209.44 197.371   4
   7   3  -4 5986.51 128.337   2
   7   3  -4 5614.35 189.798   8
   7  -3  -4 6517.54 231.271   6
   7   3  -2 4332.85 138.067   4
  -7   3  -2 4672.97 142.594   4
  -7  -3  -2 4250.53 152.837   4
   7   3  -2 4644.98 116.073   2
  -7  -3  -2 4801.36 169.973   3
   7  -3  -2 4323.74 133.866   2
   7   3  -2 3828.18 163.059   8
   7  -3  -2 4723.79 189.695   6
  -7  -3   0 3997.13 139.648   4
  -7   3   0 4635.72 137.553   4
   7  -3   0 3876.40 132.066   2
  -7  -3   0 4257.63 144.414   3
   7   3   0 4027.30 125.306   2
   7   3   0 3497.01 166.244   8
   7  -3   0 4747.39 188.538   6
  -7   3   2 4839.32 148.373   2
  -7  -3   2 4704.73 145.202   4
  -7  -3   2 4696.71 140.917   3
  -7   3   2 4816.61 141.451   4
  -7   3   4 6126.88 166.799   2
  -7  -3   4 5667.54 160.408   4
  -7   3   4 5760.41 160.411   4
   7  -3   4 5461.40 162.932   4
  -7   3   4 5525.92 171.913   5
  -7   3   6 3971.80 129.670   4
   7  -3   6 3829.99 135.476   4
  -7  -3   6 3984.06 128.181   4
  -7   3   6 4053.96 132.269   2
   7  -3   6 4569.17 122.367   8
   7  -3   6 4890.21 202.706   6
  -7   3   6 3726.26 137.506   5
   7  -3   8 4292.86 148.391   4
  -7  -3   8 4334.24 131.038   4
  -7   3   8 4302.04 134.986   2
  -7  -3   8 4062.47 106.561   2
  -7  -3   8 4331.14 211.561   8
  -7   3   8 3923.19 141.182   5
   7  -3  10 4317.52 152.809   4
   7   3  10 3741.61 197.916   3
  -7  -3  10 3930.48 107.001   2
   7  -3  10 4514.76 136.536   8
  -7  -3  10 4208.35 218.017   8
   7   3  12 3025.63 156.932   4
  -7  -3  12 3736.27 123.287   4
   7   3  12 3100.77 186.872   3
  -7  -3  12 3430.22 100.009   2
   7  -3  12 3627.10 128.547   8
  -7  -3  12 3782.26 208.902   8
  -7   3  12 3257.26 121.715   5
  -7  -3  12 2940.44 148.348   6
   7  -3  14 4104.21 157.660   4
   7   3  14 3227.73 198.255   3
   7   3  14 3433.96 172.582   4
  -7  -3  14 3900.60 129.132   4
  -7  -3  14 3779.47 111.478   2
   7  -3  14 3980.44 200.868   1
  -7   3  14 3811.56 139.809   2
   7  -3  14 4325.67 151.991   8
  -7  -3  14 4419.43 229.627   8
  -7  -3  14 3302.24 149.825   6
  -7   3  14 3529.07 126.541   5
   7   3  16 662.989 94.3727   3
   7  -3  16 826.906 71.8586   4
  -7  -3  16 712.250 55.1174   4
   7   3  16 718.459 80.5292   4
   7  -3  16 717.440 84.6176   1
  -7   3  16 768.317 63.0646   2
   7  -3  16 773.144 69.2192   8
  -7  -3  16 808.077 103.392   8
  -7   3  16 681.671 49.9435   5
  -7  -3  16 659.993 58.1078   6
   7  -3  18 1590.81 101.709   4
   7   3  18 1671.52 147.131   3
  -7  -3  18 1766.36 87.2835   4
  -7   3  18 1710.48 98.2962   2
  -7  -3  18 1777.29 79.5761   2
   7  -3  18 1846.14 112.014   8
  -7  -3  18 1400.86 76.9879   5
  -7   3  18 1537.16 68.7930   5
   7  -3  20 3211.88 146.911   4
   7   3  20 3358.15 182.980   4
  -7  -3  20 3470.20 118.625   2
  -7   3  20 3344.04 135.128   7
   7  -3  22 171.628 39.6808   4
  -7  -4 -19 1961.40 118.141   7
   7   4 -19 2014.94 156.772   9
  -7  -4 -19 1913.09 65.1061   5
  -7  -4 -17 3038.95 141.263   7
  -7   4 -17 3147.04 154.783   7
   7  -4 -17 3180.02 198.475   9
   7   4 -17 3311.85 189.961   9
  -7  -4 -17 3030.88 103.801   5
   7   4 -15 3011.49 125.855   1
  -7   4 -15 2813.12 136.860   7
   7  -4 -15 2933.03 178.444   9
   7   4 -15 2840.31 165.756   9
  -7  -4 -15 2780.47 108.722   6
  -7   4 -13 2541.98 145.371   4
  -7   4 -13 2040.08 109.281   7
  -7  -4 -13 2193.35 108.382   7
   7  -4 -13 2079.87 142.237   9
   7   4 -13 2339.13 139.917   9
  -7   4 -11 13537.9 433.469   3
   7   4 -11 13876.3 273.643   1
  -7  -4 -11 13121.3 426.055   4
  -7   4  -9 19933.2 418.912   4
  -7  -4  -9 20523.1 508.009   4
  -7   4  -9 21530.9 530.392   3
   7  -4  -9 18517.1 361.377   1
   7   4  -9 17248.3 417.501   8
  -7  -4  -7 559.073 67.4927   4
  -7   4  -7 528.494 49.5683   4
  -7   4  -7 522.149 68.8576   3
   7   4  -7 472.788 54.0051   8
   7  -4  -7 536.964 65.0400   6
  -7  -4  -5 11207.0 308.636   4
  -7   4  -5 11209.7 265.960   4
  -7   4  -5 11867.8 324.699   3
   7  -4  -5 10948.1 316.138   6
   7   4  -3 38908.0 671.982   4
  -7   4  -3 38456.7 681.927   4
  -7  -4  -3 39812.4 724.872   4
   7   4  -3 41917.0 625.095   2
   7   4  -3 32009.5 753.067   8
   7  -4  -3 43277.9 774.294   6
  -7   4  -3 35930.8 685.237   7
  -7  -4  -1 3743.12 141.734   4
   7   4  -1 4143.12 135.355   4
  -7   4  -1 4440.88 134.607   4
   7   4  -1 4042.25 116.098   2
   7   4  -1 3851.23 186.120   8
   7  -4  -1 4714.49 180.392   6
  -7   4  -1 3754.81 131.799   7
  -7   4   1 4289.11 143.813   2
  -7  -4   1 4246.27 143.896   4
  -7   4   1 4459.39 134.694   4
   7  -4   1 4770.49 185.589   6
  -7   4   3 39767.5 682.216   2
  -7  -4   3 38772.9 675.996   4
   7  -4   3 36456.1 667.059   4
  -7   4   3 38864.8 671.400   4
   7  -4   3 42137.4 773.385   6
  -7   4   5 10725.3 238.833   2
  -7  -4   5 10052.3 228.191   4
   7   4   5 8494.74 281.944   3
  -7   4   5 8624.24 231.845   4
  -7  -4   5 9802.34 202.810   3
   7  -4   5 9285.60 231.219   4
  -7   4   5 9102.42 234.537   5
   7  -4   7 498.397 45.9530   4
  -7   4   7 536.986 46.0558   2
   7  -4   7 648.212 54.0787   8
   7  -4   7 722.087 76.0063   6
  -7   4   7 475.567 45.5213   5
   7   4   9 16058.9 467.908   3
   7  -4   9 18112.9 378.542   4
  -7   4   9 17548.1 368.577   2
  -7  -4   9 18801.0 521.803   8
   7  -4   9 20421.1 400.844   8
  -7  -4  11 11529.5 252.475   4
  -7  -4  11 11256.7 212.343   2
   7   4  11 9534.12 353.146   3
   7  -4  11 12284.8 365.908   1
  -7  -4  11 12460.8 413.885   8
   7  -4  11 12752.1 293.177   8
  -7  -4  11 8972.34 317.558   6
  -7   4  11 10261.7 261.925   5
   7  -4  13 2651.02 117.129   4
   7   4  13 1913.36 129.345   4
  -7  -4  13 2414.42 95.4563   4
   7   4  13 2083.82 155.292   3
  -7  -4  13 2340.61 74.9922   2
   7  -4  13 2624.17 160.680   1
  -7  -4  13 2507.84 181.490   8
  -7  -4  13 1799.26 120.929   6
  -7   4  13 2196.76 97.8823   5
   7  -4  15 3375.13 137.450   4
   7   4  15 2513.51 155.337   4
  -7  -4  15 3262.26 115.933   4
  -7  -4  15 2998.15 92.1512   2
   7   4  15 2446.58 176.694   3
  -7   4  15 3189.66 132.689   2
   7  -4  15 3213.72 145.786   8
  -7  -4  15 3055.56 209.662   8
  -7  -4  15 2649.64 135.554   6
  -7   4  15 2730.25 107.816   5
   7  -4  17 4114.96 156.532   4
   7   4  17 3322.75 183.449   4
  -7  -4  17 3548.98 123.312   4
   7   4  17 3116.37 204.953   3
  -7   4  17 3628.92 148.361   2
  -7  -4  17 3507.10 106.736   2
   7  -4  17 3759.16 166.606   8
  -7  -4  17 2786.40 127.446   6
  -7   4  17 2988.61 108.349   5
   7  -4  19 2151.18 115.269   4
  -7  -4  19 2142.68 95.8938   4
  -7  -4  19 1694.18 87.3281   3
  -7  -4  19 2169.02 84.3820   2
  -7   4  19 2246.19 106.169   7
   7  -4  19 2416.79 142.359   8
  -7   4  19 2056.45 75.5673   5
  -7  -4  19 1662.42 83.3640   5
   7  -4  21 289.819 47.5491   4
   7  -4  23 708.446 67.4836   4
  -7  -5 -20 2780.57 144.582   7
   7  -5 -18 1411.87 137.108   9
   7   5 -18 1384.63 125.825   9
  -7  -5 -18 1344.00 94.4140   7
  -7  -5 -18 1293.25 62.4257   5
  -7  -5 -16 517.924 56.2919   7
  -7   5 -16 511.681 61.4814   7
   7  -5 -16 583.239 85.5681   9
   7   5 -16 533.791 76.0991   9
  -7   5 -14 2753.92 133.454   7
   7  -5 -14 2863.08 172.282   9
   7   5 -14 2881.56 161.591   9
  -7   5 -12 3154.75 149.847   4
  -7   5 -12 2427.64 118.856   7
   7   5 -12 2645.66 142.862   8
  -7   5 -12 3174.86 201.512   3
  -7  -5 -10 2776.99 185.008   4
  -7   5 -10 2852.20 177.404   3
  -7   5  -8 4539.33 153.009   4
  -7  -5  -8 4308.99 204.791   4
  -7   5  -8 4721.16 211.038   3
   7  -5  -8 4315.87 137.928   1
   7  -5  -8 4085.94 176.721   6
  -7   5  -6 2975.03 115.308   4
  -7  -5  -6 3045.15 158.250   4
  -7   5  -6 3140.15 163.986   3
   7  -5  -6 3072.36 146.791   6
  -7  -5  -4 3129.22 143.453   4
  -7   5  -4 2964.34 112.392   4
   7   5  -4 3129.34 106.844   4
   7   5  -4 2750.73 150.827   8
   7  -5  -4 3309.75 152.683   6
  -7   5  -4 2780.07 110.990   7
  -7   5  -2 3492.30 118.462   4
   7   5  -2 3526.52 121.192   4
  -7  -5  -2 3674.84 144.394   4
   7   5  -2 3140.54 176.724   8
  -7   5  -2 3267.19 121.067   7
   7  -5   0 4515.06 184.709   1
  -7  -5   0 4026.48 143.745   4
  -7   5   0 3862.63 123.161   4
   7   5   0 3527.72 129.793   4
   7  -5   0 4303.89 173.536   6
  -7   5   0 3312.85 121.927   7
  -7   5   2 3649.64 130.770   2
  -7  -5   2 3524.14 128.110   4
  -7   5   2 3642.30 121.646   4
   7  -5   2 3965.08 168.839   6
  -7   5   4 3508.46 124.681   2
  -7  -5   4 2828.86 88.4682   3
  -7  -5   4 3375.67 117.796   4
   7  -5   4 3141.84 113.645   4
  -7   5   4 3159.60 113.392   4
   7   5   4 2591.73 139.401   3
   7  -5   4 3929.30 168.452   6
  -7   5   4 2858.09 115.907   5
  -7   5   6 2858.87 110.263   2
  -7  -5   6 2485.86 70.2919   3
  -7  -5   6 2899.14 105.159   4
   7  -5   6 2827.31 107.396   4
  -7   5   6 2519.40 110.230   5
   7  -5   6 3217.92 153.284   6
   7  -5   8 4090.08 136.528   4
  -7  -5   8 3832.34 86.1980   3
  -7   5   8 4004.08 137.568   2
   7  -5   8 4574.43 170.307   8
   7  -5   8 4571.34 189.404   6
  -7   5   8 3959.44 142.201   5
  -7  -5  10 2684.96 99.5959   4
  -7   5  10 2906.76 118.071   2
   7  -5  10 2958.37 167.047   1
   7  -5  10 2989.67 145.977   8
   7   5  12 1969.26 133.028   4
  -7  -5  12 2775.57 102.338   4
   7  -5  12 3073.81 120.949   4
   7  -5  12 2957.54 163.046   1
  -7  -5  12 2785.59 71.3257   2
   7   5  12 2320.37 165.662   3
  -7  -5  12 2812.26 199.894   8
   7  -5  12 3305.12 154.717   8
   7  -5  12 3438.74 178.419   6
  -7   5  12 2496.42 109.217   5
   7   5  14 2436.20 154.978   4
  -7  -5  14 3441.92 115.578   4
   7  -5  14 3452.14 131.606   4
  -7  -5  14 3200.95 83.5753   2
   7   5  14 2806.11 189.990   3
  -7  -5  14 2556.85 84.7944   3
   7  -5  14 3405.28 179.365   1
  -7  -5  14 3359.77 223.644   8
  -7   5  14 2966.82 125.077   8
   7  -5  14 3479.77 164.602   8
  -7   5  14 3012.66 116.527   5
  -7  -5  14 2459.18 148.658   6
   7  -5  16 799.669 63.6715   4
   7   5  16 513.670 74.9002   4
  -7  -5  16 694.763 51.0392   4
  -7  -5  16 706.949 38.7309   2
   7   5  16 619.167 92.6373   3
  -7  -5  16 526.988 38.9387   3
  -7   5  16 754.807 66.7829   2
  -7   5  16 591.680 59.5984   8
   7  -5  16 802.946 83.2151   8
  -7  -5  16 516.591 63.7123   6
  -7   5  16 599.052 48.1366   5
   7  -5  18 1609.80 92.7292   4
   7   5  18 1365.41 121.572   4
  -7  -5  18 1482.60 75.5432   4
  -7  -5  18 1501.95 61.6260   2
   7   5  18 1294.06 135.358   3
  -7  -5  18 1106.93 60.5662   3
  -7   5  18 1451.23 79.2338   7
   7  -5  18 1514.62 122.553   8
  -7  -5  18 1186.30 81.6910   6
  -7   5  18 1196.86 63.3829   5
   7  -5  20 3657.04 141.166   4
  -7  -5  20 3050.76 112.428   4
  -7  -5  20 2275.09 93.1221   3
  -7   5  20 2830.51 117.788   7
  -7  -5  20 2137.61 95.0400   5
   7  -5  22 148.246 33.9862   4
  -7  -6 -19 907.387 79.2325   7
  -7  -6 -19 879.697 49.0719   5
  -7  -6 -17 177.330 36.3302   7
   7  -6 -17 155.876 53.2168   9
   7   6 -17 130.371 46.0053   9
   7   6 -17 277.162 55.5478   1
  -7   6 -15 721.827 82.8065   4
  -7   6 -15 509.539 59.9831   7
   7  -6 -15 534.619 81.4571   9
   7   6 -15 513.277 71.8130   9
  -7  -6 -15 473.156 51.7133   7
  -7   6 -13 2445.76 131.817   4
   7   6 -13 2852.25 121.285   1
  -7   6 -13 2768.81 191.868   3
  -7  -6 -13 1808.41 99.0655   7
  -7   6 -13 1848.51 107.761   7
   7  -6 -13 1891.03 136.690   9
   7   6 -13 2038.63 129.815   9
   7   6 -13 1928.44 127.650   8
  -7   6 -11 1740.61 100.969   4
  -7  -6 -11 2016.57 165.681   4
  -7   6 -11 2008.99 153.539   3
   7   6 -11 1982.84 92.3050   1
   7   6 -11 1271.23 101.217   8
  -7   6 -11 1368.03 87.4215   7
   7  -6 -11 1509.04 108.689   6
  -7  -6  -9 4102.98 221.089   4
  -7   6  -9 4548.90 214.137   3
   7  -6  -9 3907.09 171.667   6
  -7   6  -7 3026.27 162.391   3
  -7   6  -7 2820.57 111.975   4
  -7  -6  -7 2601.02 157.363   4
   7  -6  -7 2708.71 111.876   1
   7   6  -7 2254.87 138.415   8
   7  -6  -7 2590.71 136.759   6
  -7   6  -5 2269.22 96.2606   4
  -7  -6  -5 2597.73 141.815   4
   7   6  -5 2139.94 139.823   8
  -7   6  -5 2167.75 96.1471   7
   7  -6  -5 2724.94 137.037   6
  -7   6  -3 10437.3 229.358   4
  -7  -6  -3 9325.00 273.112   4
   7   6  -3 9137.08 219.648   4
   7  -6  -3 12192.6 317.071   1
   7   6  -3 7557.54 310.257   8
   7  -6  -3 10319.2 291.322   6
  -7   6  -3 8213.61 218.820   7
   7   6  -1 2649.38 106.553   4
  -7   6  -1 2737.07 101.171   4
  -7  -6  -1 2634.30 119.961   4
   7  -6  -1 2952.13 142.127   6
  -7   6   1 2617.57 111.448   2
  -7  -6   1 2481.11 109.747   4
  -7   6   1 2558.98 98.6796   4
   7  -6   1 2813.18 137.371   6
  -7   6   3 9356.95 234.954   2
  -7  -6   3 9032.05 225.792   4
  -7   6   3 9107.34 218.727   4
  -7   6   3 8874.58 216.981   7
  -7   6   5 2586.88 108.213   2
   7   6   5 2068.01 131.609   3
   7  -6   5 2732.53 140.634   6
  -7   6   5 2313.83 105.084   5
  -7   6   7 2560.51 109.178   2
   7  -6   7 2813.11 144.161   6
   7   6   9 3225.28 187.765   3
   7  -6   9 3703.97 163.180   2
  -7  -6   9 3568.38 118.365   4
   7   6  11 1064.98 98.8029   4
   7  -6  11 1728.22 84.1223   4
  -7  -6  11 1704.96 77.5926   4
   7   6  11 1408.25 127.639   3
   7  -6  11 2001.15 134.324   1
  -7   6  11 1837.79 96.1611   2
   7  -6  11 2056.23 134.267   8
  -7   6  11 1584.97 77.9558   8
   7  -6  11 1940.22 127.300   6
  -7   6  11 1513.25 85.0071   5
   7   6  13 1361.95 116.400   4
   7  -6  13 2223.43 97.8463   4
  -7  -6  13 2070.63 85.1006   4
   7   6  13 1733.00 148.505   3
   7  -6  13 2129.44 141.955   1
  -7  -6  13 1997.93 176.634   8
   7  -6  13 2422.62 152.256   8
  -7   6  13 1842.64 92.5346   8
  -7   6  13 1929.38 94.7196   5
   7  -6  13 2467.79 150.838   6
   7  -6  13 2380.92 157.710   7
  -7  -6  15 575.608 28.5086   3
   7   6  15 527.835 75.3550   4
  -7  -6  15 712.436 49.6609   4
   7  -6  15 770.960 58.1964   4
  -7  -6  15 661.951 27.8124   2
   7   6  15 607.160 93.6268   3
  -7   6  15 752.851 66.3291   2
  -7   6  15 669.429 59.4781   8
   7  -6  15 700.213 89.2440   8
  -7  -6  15 440.098 68.7519   6
  -7   6  15 560.997 49.8199   5
  -7  -6  17 160.503 18.7590   3
  -7  -6  17 191.563 28.8033   4
   7  -6  17 202.166 34.6043   4
   7   6  17 113.831 45.1968   4
  -7  -6  17 187.118 18.0772   2
   7   6  17 192.127 60.0276   3
   7  -6  17 236.336 60.4695   8
  -7   6  17 180.110 29.2355   7
  -7   6  17 159.561 27.0804   5
  -7  -6  17 148.567 39.4727   6
  -7  -6  19 986.589 60.5374   4
   7  -6  19 1139.55 74.8147   4
   7  -6  19 1072.40 116.555   8
  -7   6  19 1023.08 64.7275   7
   7  -6  21 268.533 39.6444   4
  -7  -7 -20 90.1148 32.5611   7
   7   7 -18 274.341 59.4202   1
  -7  -7 -18 80.5608 28.2910   7
   7   7 -16 1409.66 103.058   1
  -7  -7 -16 905.041 71.9635   7
  -7   7 -14 29.7155 28.2162   4
   7   7 -14 34.2647 26.1178   1
   7   7 -14 5.10468 24.6349   8
  -7   7 -14 76.2106 29.4616   7
   7   7 -14 21.4071 25.5708   9
  -7  -7 -14 28.6801 19.7199   7
  -7   7 -14 27.6296 18.8667   5
  -7   7 -12 129.867 33.4610   4
   7   7 -12 147.598 35.4964   1
  -7   7 -12 145.003 56.7805   3
  -7   7 -12 134.907 31.5945   7
   7   7 -12 114.493 38.5153   8
   7  -7 -12 145.981 42.7709   9
   7   7 -12 101.817 34.7184   9
   7  -7 -12 98.0856 35.2853   6
  -7  -7 -12 69.0381 24.0978   7
  -7   7 -12 114.111 25.6170   5
  -7   7 -10 1597.44 89.2590   4
  -7  -7 -10 1796.83 156.466   4
  -7   7 -10 1929.17 144.316   3
  -7   7 -10 1254.59 82.6060   7
   7   7 -10 1188.57 102.280   8
  -7   7 -10 1176.11 73.1332   5
  -7  -7  -8 779.072 95.7501   4
  -7   7  -8 733.507 85.6271   3
   7   7  -8 549.538 72.7699   8
  -7   7  -8 577.228 53.0609   7
   7  -7  -8 633.042 69.2009   6
  -7  -7  -6 1451.61 113.887   4
   7  -7  -6 1306.71 80.8268   1
  -7   7  -6 1083.55 68.4039   7
   7   7  -6 1140.06 105.707   8
   7  -7  -6 1255.23 95.5560   6
  -7   7  -4 185.732 27.6106   4
   7   7  -4 188.699 25.9631   4
  -7  -7  -4 205.648 42.6274   4
  -7   7  -4 149.972 25.8690   7
   7   7  -4 175.944 50.2209   8
   7  -7  -4 167.426 37.4281   6
  -7  -7  -2 360.084 49.2701   4
   7   7  -2 399.121 39.7600   4
  -7   7  -2 395.627 37.9927   4
   7  -7  -2 404.002 53.5198   1
   7   7  -2 377.923 25.3942   2
   7   7  -2 346.556 67.6189   8
  -7   7  -2 363.126 36.8808   7
   7  -7  -2 371.227 53.2900   6
  -7   7   0 3280.06 131.504   2
  -7   7   0 3251.92 113.267   4
  -7  -7   0 3164.91 131.838   4
  -7   7   0 2903.72 107.522   7
   7  -7   0 3405.97 156.287   6
  -7   7   2 387.627 42.9790   2
  -7   7   2 381.000 37.4446   4
   7  -7   2 434.119 57.2164   6
   7   7   4 171.963 40.2363   3
  -7   7   4 197.906 31.9163   5
   7  -7   4 261.879 45.3750   6
  -7   7   6 1408.00 79.7698   2
  -7  -7   6 1305.64 70.1976   4
  -7   7   6 1216.95 76.9723   5
  -7   7   8 590.229 53.5278   2
   7  -7   8 588.194 62.4959   2
  -7  -7   8 604.411 45.8669   4
   7  -7   8 600.790 46.6862   4
   7  -7   8 741.882 75.1986   6
  -7   7   8 572.991 52.8410   5
  -7   7  10 1421.15 85.3618   2
   7  -7  10 1401.73 114.810   1
   7   7  10 1007.55 108.391   3
   7  -7  10 1213.45 92.9731   2
  -7  -7  10 1314.87 67.0733   4
   7   7  10 995.889 94.3831   4
   7  -7  10 1411.85 72.7396   4
   7  -7  10 1603.53 113.449   6
   7  -7  10 1595.19 121.757   7
   7  -7  12 102.670 38.7603   1
  -7   7  12 113.263 29.5225   2
   7  -7  12 80.0733 31.4083   2
   7   7  12 115.219 46.2214   3
  -7  -7  12 98.7661 20.9523   4
   7  -7  12 135.710 25.5853   4
   7   7  12 100.860 37.6685   4
  -7   7  12 118.590 27.6706   5
   7  -7  12 107.902 38.8656   6
   7  -7  12 143.845 49.3982   7
   7   7  14 25.9907 31.4903   4
  -7  -7  14 38.0546 17.1089   4
   7  -7  14 32.4314 18.8443   4
   7   7  14 15.1289 35.8754   3
  -7   7  14 23.5300 17.9610   8
   7  -7  14 6.49263 39.5210   8
  -7   7  14 16.6048 16.9424   5
   7  -7  14 41.5742 36.0229   6
   7   7  16 675.900 89.2618   4
   7  -7  16 1081.47 66.9046   4
  -7  -7  16 996.860 57.5000   4
   7   7  16 789.938 109.958   3
  -7   7  16 879.503 69.7428   8
   7  -7  16 1235.60 124.253   8
  -7   7  16 908.328 54.4152   7
  -7  -7  16 584.918 80.8609   6
  -7   7  16 884.315 62.9098   5
   7  -7  18 139.672 27.6972   4
  -7  -7  18 101.738 22.0517   4
   7  -7  18 128.826 58.0990   8
  -7   7  18 109.680 24.3920   7
  -7  -7  18 65.8591 33.7212   6
   7  -7  20 153.206 29.9942   4
   7   8 -19 1499.11 133.576   1
  -7  -8 -19 942.878 79.3143   7
  -7  -8 -17 404.607 51.4138   7
   7  -8 -17 424.281 79.0831   9
   7   8 -17 545.073 77.9547   9
   7   8 -15 253.758 55.7225   8
  -7  -8 -15 305.039 41.9291   7
   7  -8 -15 356.659 61.9333   6
  -7   8 -15 303.177 39.4834   5
  -7   8 -13 3473.40 149.633   4
   7   8 -13 4003.10 162.958   1
  -7   8 -13 4281.54 240.701   3
   7   8 -13 3111.02 174.497   8
  -7   8 -13 2920.60 143.225   7
   7  -8 -13 3362.44 167.340   6
  -7  -8 -13 2821.44 126.142   7
  -7   8 -13 2814.62 119.938   5
  -7   8 -11 1093.57 76.8205   4
  -7   8 -11 1251.89 122.234   3
   7   8 -11 1456.58 92.7157   1
   7   8 -11 859.060 91.5184   8
  -7   8 -11 889.798 73.1400   7
   7  -8 -11 1088.27 92.2946   6
  -7  -8  -9 481.936 84.8325   4
  -7   8  -9 533.038 76.0399   3
  -7   8  -9 409.258 43.8435   4
   7  -8  -9 350.042 33.4416   1
   7   8  -9 397.224 64.6008   8
  -7   8  -9 422.273 47.0132   7
  -7   8  -9 332.994 40.3267   5
  -7   8  -7 5125.73 212.433   3
  -7  -8  -7 4739.92 230.694   4
  -7   8  -7 4411.24 141.371   4
  -7   8  -7 3806.39 143.000   7
   7   8  -7 3761.06 200.646   8
  -7   8  -7 3530.66 135.989   5
   7  -8  -7 4480.67 183.928   6
  -7  -8  -5 1865.68 129.426   4
   7   8  -5 1508.43 136.097   8
  -7   8  -5 1598.71 82.6686   7
  -7   8  -5 1730.88 90.2891   5
   7  -8  -5 2065.60 120.434   6
  -7  -8  -3 2157.40 128.169   4
   7   8  -3 2190.43 89.4546   4
  -7   8  -3 2047.65 86.2786   4
   7  -8  -3 2019.50 115.172   1
   7   8  -3 1947.55 157.546   8
  -7   8  -3 1678.56 58.9191   8
  -7   8  -3 1838.85 85.8427   7
   7  -8  -3 2140.83 124.413   6
  -7  -8  -1 2270.63 119.798   4
  -7   8  -1 2248.91 91.1139   4
  -7   8  -1 2047.36 87.2775   7
  -7   8  -1 2014.63 84.1617   8
  -7   8   1 2747.74 119.364   2
  -7  -8   1 2877.78 124.039   4
  -7   8   1 2812.26 106.174   4
   7  -8   3 2165.66 131.515   1
  -7   8   3 2031.05 100.423   2
  -7   8   3 1975.56 88.8228   4
  -7   8   5 1602.17 89.5639   2
   7   8   5 1298.75 96.4686   4
  -7  -8   5 1563.12 80.2344   4
  -7   8   5 1474.81 86.3549   5
   7  -8   5 1708.45 112.982   6
  -7   8   5 1415.91 68.0451   7
  -7   8   7 4563.27 161.898   2
   7  -8   7 4431.59 175.093   2
  -7  -8   7 4563.72 138.542   4
  -7   8   7 4117.59 154.429   5
  -7   8   7 4501.31 129.156   7
   7  -8   7 4904.67 198.296   6
  -7   8   9 311.192 42.0836   2
   7  -8   9 351.714 57.6030   1
   7  -8   9 293.045 47.0526   2
   7   8   9 218.223 54.6594   3
  -7  -8   9 319.405 33.8301   4
   7   8   9 223.133 46.1065   4
   7  -8   9 346.553 60.3875   7
   7  -8  11 768.259 82.3964   1
   7  -8  11 798.033 77.7212   2
   7   8  11 613.920 90.2891   3
  -7   8  11 889.285 71.9954   2
  -7  -8  11 913.687 53.7999   4
   7  -8  11 833.382 53.7382   4
   7   8  11 559.391 74.9423   4
   7  -8  11 930.693 88.6830   6
   7  -8  11 1001.45 102.676   7
  -7   8  11 808.971 64.6842   5
   7  -8  13 3245.07 160.142   2
   7   8  13 2474.98 187.171   3
  -7   8  13 3633.57 150.741   2
  -7  -8  13 3556.46 111.022   4
   7  -8  13 3528.35 116.896   4
   7   8  13 2029.77 152.375   4
   7  -8  13 3700.89 181.430   6
  -7   8  13 3079.57 129.338   5
   7   8  15 205.092 53.2108   4
  -7  -8  15 199.033 26.8159   4
   7  -8  15 226.539 31.0024   4
   7  -8  15 263.941 52.1185   2
   7   8  15 185.169 59.7295   3
  -7   8  15 245.577 26.6448   7
   7  -8  15 356.887 63.7553   6
  -7   8  15 229.811 36.0779   5
  -7  -8  17 414.857 36.7580   4
   7  -8  17 504.701 44.9495   4
   7   8  17 388.580 81.9316   3
  -7   8  17 498.500 35.8018   7
   7  -8  17 490.085 89.8834   8
  -7  -8  17 310.599 62.1138   6
   7  -8  19 1079.89 64.2201   4
  -7  -8  19 651.807 74.3203   6
  -7  -9 -20 71.7325 32.5164   7
   7  -9 -18 1266.91 132.048   9
   7   9 -18 1516.83 126.881   9
  -7  -9 -18 1190.16 85.7523   7
  -7  -9 -18 1226.54 87.0776   6
  -7  -9 -16 3438.43 142.887   7
   7  -9 -16 3381.37 209.942   9
   7   9 -16 4090.63 203.414   9
   7  -9 -16 3865.64 190.117   6
  -7   9 -14 485.407 59.3179   4
   7   9 -14 433.678 69.8246   8
  -7  -9 -14 408.483 47.6227   7
   7  -9 -14 386.472 69.9612   9
   7   9 -14 512.041 69.1438   9
   7  -9 -14 581.607 72.8621   6
  -7   9 -12 1619.16 93.5287   4
   7   9 -12 2132.86 123.496   1
  -7   9 -12 1860.43 152.887   3
   7   9 -12 1308.90 117.267   8
  -7   9 -12 1258.09 91.5769   7
   7  -9 -12 1355.73 115.301   9
   7  -9 -12 1583.59 113.582   6
  -7   9 -12 1330.86 82.5455   5
  -7  -9 -12 1228.60 83.0704   7
  -7   9 -10 10058.9 249.816   4
  -7   9 -10 11608.1 371.016   3
   7   9 -10 8747.83 326.495   8
  -7   9 -10 8767.57 259.170   7
   7  -9 -10 10593.4 313.758   6
  -7   9  -8 3849.61 130.005   4
  -7   9  -8 4305.33 202.112   3
   7  -9  -8 3482.89 124.654   1
   7   9  -8 3229.06 188.416   8
  -7   9  -8 3219.09 135.433   7
   7  -9  -8 3955.86 174.773   6
  -7   9  -8 3317.13 133.593   5
  -7   9  -6 1181.16 67.0606   4
  -7  -9  -6 1325.56 121.105   4
   7  -9  -6 1248.36 83.8623   1
   7   9  -6 1221.77 123.003   8
  -7   9  -6 992.250 68.6720   7
  -7   9  -6 1026.42 50.7200   8
  -7   9  -6 1059.07 73.1870   5
   7  -9  -6 1379.72 102.186   6
  -7   9  -4 11680.3 271.641   7
   7   9  -4 11793.0 426.593   8
  -7   9  -4 12266.7 295.796   5
  -7  -9  -2 12147.2 336.190   4
  -7   9  -2 11707.0 253.857   4
   7   9  -2 10496.5 402.769   8
  -7   9  -2 10640.4 246.360   8
   7  -9   0 1587.51 108.217   5
  -7   9   0 1831.48 84.1010   4
  -7   9   0 1776.99 97.6888   2
  -7   9   2 11680.3 261.502   4
  -7   9   2 12115.8 295.011   2
   7  -9   2 11777.7 333.691   1
  -7   9   2 11254.8 244.776   7
   7  -9   4 12923.9 354.996   1
   7   9   4 12099.6 326.796   4
  -7  -9   4 13032.0 291.626   4
  -7   9   4 11960.8 305.656   5
  -7   9   4 11542.6 256.005   7
  -7   9   6 1161.81 77.7218   2
   7  -9   6 1035.20 79.1341   2
   7  -9   6 1040.79 91.2170   1
   7   9   6 988.468 86.6675   4
  -7  -9   6 1012.34 63.9510   4
  -7   9   6 1028.80 53.1862   7
  -7   9   8 3891.04 150.453   2
   7  -9   8 3312.67 152.554   2
   7   9   8 2833.31 183.455   3
   7  -9   8 3721.27 176.921   1
   7   9   8 2890.28 159.012   4
  -7  -9   8 3792.93 122.960   4
  -7   9   8 3860.29 109.494   7
  -7   9   8 3583.69 145.096   5
   7  -9   8 3891.30 184.849   6
  -7   9  10 10068.7 267.688   2
   7  -9  10 8832.37 274.693   2
   7   9  10 7286.39 325.496   3
   7  -9  10 8677.06 292.406   1
  -7  -9  10 9608.67 214.730   4
   7   9  10 6602.44 277.797   4
  -7   9  10 9453.95 197.293   7
  -7   9  10 8746.68 250.474   5
   7  -9  10 11129.5 350.924   7
   7  -9  10 10281.2 311.601   6
   7  -9  12 1535.84 107.163   2
   7   9  12 1271.41 131.713   3
  -7   9  12 1626.41 101.000   2
  -7  -9  12 1567.05 70.6842   4
   7   9  12 1060.99 106.457   4
   7  -9  12 1721.22 122.348   6
  -7   9  12 1418.74 89.6765   5
  -7   9  12 1580.81 62.6878   7
  -7  -9  14 575.332 41.4181   4
   7  -9  14 624.552 45.0965   4
   7   9  14 500.741 88.1732   3
  -7   9  14 534.337 31.0942   7
  -7   9  14 517.373 55.3195   5
   7  -9  14 627.902 76.9723   6
  -7  -9  16 4373.96 118.025   4
   7  -9  16 3897.86 119.684   4
   7   9  16 2620.88 182.603   4
   7   9  16 3098.90 220.671   3
  -7   9  16 3672.70 88.5180   7
   7  -9  16 4599.15 212.187   6
   7  -9  18 1500.98 70.0973   4
   7  10 -19 4283.57 228.783   1
  -7 -10 -19 2394.62 125.124   7
   7  10 -17 207.931 57.9478   1
  -7 -10 -17 179.285 36.4653   7
   7 -10 -17 114.443 47.9449   9
   7  10 -17 157.747 47.0852   9
   7 -10 -17 155.813 49.0144   6
   7  10 -15 1911.15 145.163   8
  -7 -10 -15 1568.93 91.4882   7
   7 -10 -15 1635.69 140.359   9
   7  10 -15 1809.15 130.282   9
  -7  10 -13 7437.59 221.103   4
   7  10 -13 6674.86 279.734   8
   7 -10 -13 6256.45 268.142   9
   7  10 -13 6832.72 247.292   9
   7 -10 -13 7374.32 263.374   6
  -7 -10 -13 6314.41 203.024   7
  -7  10 -11 2595.35 113.093   4
   7  10 -11 3385.18 163.092   1
  -7  10 -11 2761.70 179.248   3
   7  10 -11 2425.14 164.054   8
  -7  10 -11 2176.47 120.701   7
   7 -10 -11 2089.49 139.986   9
   7  10 -11 2170.01 126.772   9
   7 -10 -11 2756.72 152.600   6
  -7 -10 -11 2002.72 108.181   7
  -7  10  -9 3220.43 180.364   3
  -7  10  -9 2915.87 111.015   4
   7  10  -9 2509.39 171.501   8
  -7  10  -9 2311.64 117.979   7
  -7  10  -9 2334.28 114.759   5
  -7  10  -7 10763.6 239.261   4
   7 -10  -7 10107.0 255.483   1
   7  10  -7 10048.4 375.177   8
  -7  10  -7 9280.00 251.668   7
  -7  10  -7 8584.03 208.432   8
  -7  10  -7 9456.08 258.761   5
   7 -10  -7 11478.8 326.048   6
  -7  10  -5 6736.43 172.368   4
  -7 -10  -5 7192.75 285.068   4
   7  10  -5 6202.03 154.478   4
  -7  10  -5 5092.68 146.169   8
   7  10  -5 5625.02 289.580   8
  -7  10  -5 5053.36 169.481   7
  -7  10  -5 5703.20 187.805   5
   7  10  -3 3577.18 232.949   8
  -7  10  -3 3653.39 125.631   8
   7 -10  -3 3973.51 177.056   5
  -7  10  -3 3498.37 142.183   5
   7 -10  -1 9740.90 287.099   1
   7 -10  -1 10167.3 304.051   5
   7  10   1 10162.1 280.542   3
  -7 -10   1 11337.0 296.412   4
  -7  10   1 10998.9 248.253   4
  -7  10   1 10647.5 279.074   2
   7 -10   1 10074.9 305.509   1
  -7  10   1 9041.51 221.730   7
   7 -10   1 11505.5 321.697   5
   7  10   3 3439.20 149.056   4
  -7 -10   3 3810.51 143.606   4
  -7  10   3 3604.12 127.271   4
  -7  10   3 3876.84 148.727   2
   7  10   3 2943.31 157.855   3
   7 -10   3 3544.32 168.865   1
   7 -10   3 3032.14 138.502   2
  -7  10   3 3295.34 106.852   7
   7 -10   3 3900.87 177.558   5
  -7  10   3 3492.14 144.146   5
  -7 -10   5 5952.05 174.334   4
   7  10   5 5338.54 209.722   4
   7 -10   5 5440.09 193.457   2
  -7  10   5 6161.16 194.296   2
   7 -10   5 5770.83 222.570   1
  -7  10   5 5542.50 140.607   7
   7 -10   5 6512.01 233.577   5
  -7  10   5 5719.85 193.456   5
   7  10   7 9566.91 316.156   4
  -7 -10   7 10707.5 247.190   4
  -7  10   7 12109.0 302.222   2
   7 -10   7 10647.3 298.318   2
   7 -10   7 10971.4 329.468   1
  -7  10   7 11557.4 221.755   7
  -7  10   7 10735.8 290.174   5
   7  10   9 2138.72 142.687   4
  -7 -10   9 2682.24 97.8955   4
  -7  10   9 2651.35 128.115   2
   7 -10   9 2463.90 131.326   2
   7 -10   9 2388.26 142.533   1
  -7  10   9 2513.73 75.1694   7
   7 -10   9 3017.02 175.004   7
  -7 -10  11 2240.39 85.5891   4
   7  10  11 1865.73 140.171   4
   7 -10  11 2234.83 129.146   2
   7  10  11 1800.00 159.963   3
  -7  10  11 2241.46 61.7127   7
  -7  10  11 2295.45 119.184   5
   7 -10  11 2743.70 171.688   7
   7 -10  11 2579.72 148.505   6
   7  10  13 5491.29 294.488   3
  -7 -10  13 6925.82 161.677   4
   7  10  13 5073.50 253.170   4
  -7  10  13 6413.50 210.265   5
   7 -10  15 1840.74 120.224   2
   7  10  15 1347.53 147.847   3
  -7 -10  15 1684.65 66.6272   4
   7  10  15 1131.04 117.772   4
   7 -10  15 2087.48 140.507   6
   7 -10  17 136.533 40.7624   2
   7 -10  17 165.615 50.4870   6
  -7 -10  19 1711.03 136.441   6
  -7 -11 -18 779.250 68.1841   7
  -7 -11 -18 675.453 80.3218   6
   7  11 -16 1644.11 124.212   9
  -7 -11 -16 1452.98 88.1238   7
   7 -11 -16 1437.73 136.078   9
   7 -11 -16 1514.66 121.068   6
   7  11 -14 197.746 53.8946   1
  -7 -11 -14 224.349 36.8722   7
   7  11 -14 247.058 61.1184   8
   7  11 -14 277.199 53.3190   9
   7 -11 -14 172.958 51.1745   9
   7 -11 -14 226.291 50.8163   6
  -7  11 -12 968.820 69.1652   4
   7  11 -12 1161.31 95.4075   1
   7  11 -12 876.354 103.104   8
   7  11 -12 832.974 79.5075   9
   7 -11 -12 678.170 83.9211   9
   7 -11 -12 1054.53 97.1578   6
  -7 -11 -12 750.332 64.4859   7
  -7  11 -10 4845.83 151.302   4
   7  11 -10 4417.97 237.793   8
  -7  11 -10 4147.89 171.101   7
   7 -11 -10 3936.31 191.248   9
   7  11 -10 4281.16 176.317   9
   7 -11 -10 4956.09 211.113   6
  -7  11  -8 1094.61 64.4813   4
  -7  11  -8 1205.60 107.657   3
  -7  11  -8 885.434 71.1590   7
   7  11  -8 890.659 106.423   8
  -7  11  -8 900.150 57.5061   8
  -7  11  -8 791.623 68.1602   5
  -7  11  -6 644.061 48.6589   4
   7 -11  -6 604.442 72.4130   5
  -7  11  -6 526.004 45.6120   8
   7  11  -6 724.451 104.702   8
  -7  11  -6 571.882 58.7084   5
  -7  11  -4 4885.45 143.707   4
   7  11  -4 5247.97 142.110   4
  -7  11  -4 4292.68 145.900   8
   7  11  -4 4760.26 277.319   8
   7 -11  -4 5113.08 208.701   5
  -7  11  -4 4415.15 168.656   5
  -7 -11  -2 3958.40 188.977   4
  -7  11  -2 3543.73 119.052   4
   7  11  -2 3470.59 232.707   8
  -7  11  -2 3292.60 143.294   8
  -7  11  -2 3233.01 121.882   7
  -7  11  -2 3361.78 145.270   5
   7 -11  -2 3760.98 176.662   5
  -7 -11   0 419.091 57.9394   4
   7  11   0 393.219 44.3315   3
   7 -11   0 384.433 56.8577   1
  -7  11   0 335.745 46.7975   2
  -7  11   0 366.939 37.8768   7
   7 -11   0 392.157 60.6514   5
   7  11   2 3621.45 150.814   4
  -7  11   2 3736.43 128.939   4
  -7 -11   2 3756.44 155.785   4
   7 -11   2 3661.24 174.280   1
  -7  11   2 4077.76 156.729   2
   7  11   2 3470.73 162.448   3
   7 -11   2 3089.73 139.843   2
  -7  11   2 3533.28 115.204   7
   7 -11   2 4023.30 184.925   5
  -7  11   2 3416.91 148.981   5
   7  11   4 4370.67 177.979   4
  -7 -11   4 4565.91 160.634   4
  -7  11   4 4812.26 176.407   2
   7 -11   4 4566.40 198.847   1
   7 -11   4 4055.10 164.877   2
  -7  11   4 4080.40 120.425   7
  -7  11   4 4163.49 166.209   5
   7 -11   4 4837.91 204.902   5
  -7 -11   6 707.706 55.1584   4
   7  11   6 627.421 72.1614   4
   7 -11   6 562.973 61.3483   2
  -7  11   6 732.933 66.3464   2
   7 -11   6 631.592 75.6881   1
  -7  11   6 643.756 38.6908   7
  -7  11   6 655.254 64.7678   5
   7 -11   6 768.232 81.8736   5
  -7 -11   8 994.978 59.8764   4
   7  11   8 865.989 89.3008   4
  -7  11   8 1094.27 82.7666   2
   7 -11   8 974.874 82.6032   2
   7 -11   8 899.154 90.2081   1
  -7  11   8 1041.19 42.3029   7
   7 -11   8 1052.53 103.691   7
   7 -11  10 4472.86 183.387   2
  -7 -11  10 4242.06 126.401   4
   7  11  12 873.764 100.095   4
  -7 -11  12 937.699 49.2725   4
  -7  11  12 953.663 79.1023   5
   7  11  14 189.795 55.5843   4
  -7 -11  14 256.827 25.2436   4
   7 -11  14 270.557 50.5903   2
   7  11  14 172.347 61.4019   3
   7 -11  14 254.253 42.4725   9
   7 -11  14 319.401 59.8736   6
   7 -11  16 1623.49 113.958   2
   7 -11  16 1983.98 139.533   6
   7  12 -19 416.100 96.0561   1
   7  12 -17 56.5461 44.8834   1
   7 -12 -17 48.0039 46.7995   9
   7  12 -17 38.5723 30.3405   9
  -7 -12 -17 40.0440 24.6506   7
   7 -12 -17 41.3715 37.1776   6
   7  12 -15 152.731 59.3450   1
   7  12 -15 227.890 48.4466   9
   7 -12 -15 233.016 58.5393   9
  -7 -12 -15 202.660 33.3158   7
   7 -12 -15 267.221 56.7256   6
  -7  12 -13 565.780 54.5215   4
   7  12 -13 598.673 89.6424   8
   7 -12 -13 553.211 78.7689   9
   7  12 -13 553.631 68.6513   9
   7 -12 -13 617.259 78.1986   6
  -7 -12 -13 539.694 53.7799   7
  -7  12 -11 539.763 48.9362   4
   7  12 -11 674.879 79.6180   1
   7  12 -11 445.241 79.8737   8
   7 -12 -11 444.850 66.0484   9
   7  12 -11 459.898 59.6285   9
  -7 -12 -11 390.412 49.0840   7
   7 -12 -11 447.900 65.8062   6
  -7  12  -9 1368.02 71.3154   4
   7  12  -9 1222.25 126.566   8
   7 -12  -9 1076.17 96.0896   9
   7  12  -9 1240.96 87.1839   9
  -7  12  -9 1217.70 87.6883   5
  -7 -12  -9 1029.98 80.4391   7
  -7  12  -7 412.953 39.2479   4
   7 -12  -7 329.654 56.8179   5
  -7  12  -7 329.695 38.4192   8
   7  12  -7 345.535 75.8646   8
  -7  12  -7 370.844 49.2510   5
  -7  12  -5 469.157 41.9608   4
   7  12  -5 583.550 40.7410   4
   7 -12  -5 542.879 59.0494   1
  -7  12  -5 480.617 48.5609   8
  -7  12  -5 424.050 48.6967   7
   7  12  -5 602.468 107.351   8
   7 -12  -5 518.077 70.1796   5
  -7  12  -5 477.030 56.8359   5
  -7  12  -3 3847.07 124.972   4
   7 -12  -3 4179.97 190.291   1
   7  12  -3 3115.24 231.528   8
  -7  12  -3 3201.52 127.152   7
  -7  12  -3 3143.06 141.527   8
  -7  12  -3 3210.63 147.040   5
   7 -12  -3 3786.52 185.279   5
  -7 -12  -1 29.7990 32.0175   4
   7 -12  -1 34.8532 31.4390   5
  -7  12  -1 28.9491 16.5456   4
  -7  12  -1 15.9136 24.7939   8
  -7  12  -1 34.2830 17.3646   7
  -7  12  -1 12.2759 20.9774   5
  -7 -12   1 56.3751 26.7179   4
   7 -12   1 59.8762 32.4440   5
   7  12   1 56.8442 26.1207   3
  -7  12   1 53.7249 25.8093   2
   7 -12   1 62.4832 32.3332   1
  -7  12   1 55.6738 17.0361   7
  -7  12   1 49.6540 26.5708   5
  -7 -12   3 3533.08 148.274   4
   7 -12   3 3222.16 166.410   1
  -7  12   3 3563.94 150.625   2
   7 -12   3 3004.09 140.637   2
  -7  12   3 3301.17 107.210   7
   7 -12   3 3782.07 185.213   5
  -7  12   3 3244.02 149.688   5
   7  12   5 540.661 67.2549   4
  -7 -12   5 531.439 52.9159   4
  -7  12   5 521.806 58.2331   2
   7 -12   5 522.707 69.4604   1
   7 -12   5 535.211 58.9424   2
  -7  12   5 625.291 39.4026   7
   7 -12   5 548.657 73.0018   5
  -7  12   5 488.873 59.3965   5
   7  12   7 343.464 58.6628   4
  -7 -12   7 373.892 39.9918   4
   7 -12   7 375.867 51.9252   2
   7  12   7 289.881 63.6364   3
  -7  12   7 389.908 26.3227   7
   7 -12   7 363.399 60.4530   5
  -7  12   7 327.277 50.5885   5
   7 -12   9 1415.91 101.443   2
  -7 -12   9 1367.49 68.5151   4
   7  12   9 1308.44 114.244   4
  -7  12   9 1332.42 96.5223   5
  -7 -12  11 452.079 36.0279   4
   7  12  11 339.769 65.5974   4
   7  12  13 491.292 80.6262   4
   7 -12  13 585.627 69.5951   2
   7 -12  13 559.531 58.0014   9
   7 -12  15 255.713 49.7001   2
   7  13 -18 644.679 105.314   1
  -7 -13 -16 726.201 61.1366   7
   7 -13 -16 831.359 99.3686   9
   7 -13 -14 413.310 72.4430   9
   7  13 -14 432.759 63.0735   9
  -7 -13 -14 435.121 47.7529   7
  -7  13 -12 408.237 42.6967   4
   7  13 -12 502.969 71.6103   1
   7  13 -12 364.373 75.9864   8
   7 -13 -12 362.080 63.3731   9
   7  13 -12 375.531 56.5628   9
  -7 -13 -12 315.448 43.7295   7
  -7  13 -10 1628.65 77.1205   4
   7  13 -10 1514.94 145.242   8
   7 -13 -10 1298.32 106.406   9
   7  13 -10 1458.28 97.7202   9
  -7 -13 -10 1237.98 85.4962   7
  -7  13  -8 662.471 49.6036   4
   7  13  -8 640.911 100.156   8
   7 -13  -8 632.014 70.5215   9
  -7  13  -6 138.927 25.9894   4
   7 -13  -6 207.091 51.3489   5
   7  13  -6 75.4131 31.8548   1
   7  13  -6 106.391 53.7568   8
  -7  13  -6 144.803 36.8138   5
  -7  13  -4 1381.68 70.4961   4
  -7  13  -4 1329.70 89.8570   8
   7  13  -4 1274.33 152.588   8
   7 -13  -4 1558.26 122.406   5
  -7  13  -4 1333.20 96.2247   5
  -7  13  -2 1222.89 67.8355   4
   7  13  -2 1055.04 138.634   8
  -7  13  -2 1035.01 70.0622   7
  -7  13  -2 978.864 88.1635   8
  -7  13  -2 1043.12 84.9538   5
   7 -13  -2 1355.27 113.248   5
   7 -13   0-8.03976 28.9992   5
  -7  13   0 6.51655 14.2242   4
   7  13   0 8.49109 21.0740   3
  -7  13   0-1.79266 20.9189   2
  -7  13   0 26.5190 15.3639   7
  -7  13   0-5.78137 20.2063   5
   7  13   2 1132.09 82.5265   4
  -7 -13   2 1150.11 92.4417   4
  -7  13   2 1048.81 67.7754   4
   7 -13   2 902.584 91.5089   1
  -7  13   2 1105.07 84.3404   2
   7  13   2 1046.75 92.0287   3
  -7  13   2 953.919 58.4758   7
  -7  13   2 967.598 83.8175   5
   7 -13   2 1142.48 105.354   5
   7 -13   4 1474.32 116.460   1
   7 -13   4 1387.04 95.8998   2
  -7 -13   4 1611.61 98.1012   4
  -7  13   4 1507.34 104.972   5
   7 -13   4 1624.45 125.560   5
   7 -13   6 127.627 34.8854   2
   7  13   6 51.8730 38.6906   3
  -7 -13   6 132.142 30.3018   4
  -7  13   6 150.865 37.8209   5
   7  13   8 429.785 80.7693   3
  -7 -13   8 626.883 49.2358   4
   7  13   8 504.696 73.0306   4
   7 -13   8 698.709 89.2234   7
  -7 -13  10 1482.69 65.2180   4
   7  13  10 1581.01 130.829   4
   7  13  10 1265.60 138.276   3
   7  13  12 254.214 60.5290   4
   7 -13  12 338.951 54.5946   2
   7  13  12 199.550 69.5287   3
   7  13  12 428.893 69.0684   9
   7 -13  12 300.997 42.7192   9
   7 -13  14 454.416 59.9815   2
   7  13  14 292.549 83.4411   3
   7 -13  14 380.903 50.8366   9
   7  14 -15 902.981 88.0105   9
  -7 -14 -13 1085.51 73.0003   7
   7 -14 -13 1317.82 113.810   9
   7  14 -13 1399.09 103.948   9
  -7  14 -11 1193.57 64.4181   4
   7 -14 -11 1158.29 101.406   9
   7  14 -11 1104.05 88.5010   9
  -7 -14 -11 973.064 74.2247   7
  -7  14  -9 2944.09 100.536   4
  -7  14  -9 2747.44 121.344   8
   7  14  -9 2807.19 202.379   8
   7 -14  -9 2731.94 148.647   9
   7  14  -9 2717.25 129.751   9
  -7  14  -7 1681.16 76.4470   4
   7  14  -7 1627.01 164.674   8
   7 -14  -7 1576.43 103.365   9
   7  14  -7 1891.71 125.682   1
  -7  14  -5 1863.78 82.6925   4
   7  14  -5 1774.82 71.2915   4
   7  14  -5 1635.78 174.843   8
  -7  14  -3 6901.40 181.577   4
   7  14  -3 5965.54 345.304   8
   7  14  -1 1678.71 51.3012   2
  -7  14  -1 1965.72 88.9906   4
  -7  14  -1 1771.20 114.233   5
   7  14   1 1932.47 115.918   3
   7  14   1 1888.96 103.236   4
  -7  14   1 1755.68 88.7375   4
  -7  14   1 1746.34 116.028   5
   7  14   3 6236.15 216.541   4
  -7  14   3 6467.07 189.734   4
  -7  14   3 5926.92 226.050   5
   7  14   5 1933.20 125.345   4
   7  14   5 1588.21 139.184   3
   7 -14   5 1866.08 113.341   2
   7  14   7 968.336 114.699   3
   7  14   9 1881.40 168.440   3
   7 -14   9 2796.38 143.756   2
   7  14  11 1085.05 114.611   4
   7 -14  11 1286.35 97.2330   2
   7  14  11 897.058 122.150   3
   7 -14  11 1130.52 75.5295   9
   7 -14  13 1144.60 93.2877   2
   7 -14  13 1034.68 78.6242   9
   7 -15 -12 822.069 84.4720   9
   7  15 -12 922.321 79.7770   9
  -7 -15 -12 647.281 56.8383   7
  -7  15 -10 522.605 40.2901   4
  -7  15 -10 501.040 54.5755   8
   7 -15 -10 464.348 62.9496   9
   7  15 -10 480.290 57.7547   9
  -7 -15 -10 386.335 49.2393   7
  -7  15  -8 878.421 52.3115   4
  -7  15  -8 783.214 68.3484   8
   7  15  -8 853.935 120.816   8
   7 -15  -8 807.351 75.9138   9
  -7  15  -6 741.083 49.8921   4
   7  15  -6 665.167 116.480   8
   7 -15  -6 727.428 65.9101   9
  -7  15  -4 587.254 46.8199   4
   7  15  -4 509.057 108.188   8
  -7  15  -2 621.632 48.6611   4
   7  15  -2 534.578 111.775   8
   7  15   0 450.855 49.7313   4
  -7  15   0 545.131 48.5187   4
   7  15   0 543.273 30.9504   2
   7  15   2 670.579 65.7188   4
  -7  15   2 646.910 55.6731   4
   7  15   4 669.145 72.4197   4
   7  15   6 730.904 81.2031   4
   7  15   6 468.924 84.0382   3
   7  15   8 856.497 93.4521   4
   7 -15   8 1018.43 85.8641   2
   7  15  10 290.450 77.7312   3
   7 -15  10 466.114 61.3566   2
   7 -15  10 375.246 43.4839   9
   7 -15  12 751.060 76.2099   2
   7 -15  12 662.638 60.6276   9
   7 -16 -11 1519.62 103.792   9
   7  16 -11 1681.06 100.647   9
  -7  16 -11 1315.78 90.3582   8
  -7  16  -9 2423.08 83.0086   4
  -7  16  -9 2454.68 121.860   8
   7 -16  -9 2450.74 125.364   9
  -7  16  -7 811.601 50.0969   4
  -7  16  -7 755.316 71.1523   8
   7 -16  -7 899.018 70.7156   9
   7  16  -7 1008.41 110.684   1
  -7  16  -5 1730.58 77.6228   4
  -7  16  -5 1557.40 107.686   8
   7 -16  -5 1870.98 94.7126   9
   7  16  -5 1897.17 88.2725   9
   7  16  -5 1936.68 196.417   8
  -7  16  -3 5988.80 163.765   4
   7  16  -3 5121.52 330.680   8
  -7  16  -3 4826.12 218.396   8
   7 -16  -3 5742.62 167.023   9
  -7  16  -1 787.634 56.7513   4
   7  16  -1 849.201 62.6834   4
   7  16  -1 731.201 32.3595   2
   7  16   1 939.242 72.4982   4
  -7  16   1 810.279 60.3719   4
   7  16   1 954.281 83.5408   3
   7  16   1 814.130 42.7276   2
  -7  16   3 5638.49 178.731   4
   7  16   5 1853.63 122.220   4
   7  16   5 1547.99 141.139   3
   7  16   7 855.479 92.5912   4
   7 -16   7 910.145 55.8528   9
   7  16   7 700.812 102.736   3
   7 -16   7 1004.41 86.7868   2
   7  16   9 2259.44 154.722   4
   7 -16   9 2525.11 136.959   2
   7 -16   9 2141.94 96.2721   9
   7  16  11 850.418 126.608   3
   7  16  11 1776.70 125.061   9
  -7  17 -10 2431.45 124.499   8
  -7 -17 -10 1708.87 98.0475   7
  -7  17  -8 892.176 79.0451   8
  -7  17  -6 273.370 31.1742   4
  -7  17  -6 292.802 49.8089   8
   7 -17  -6 215.253 32.9734   9
   7  17  -6 276.435 36.2241   9
  -7  17  -4 3347.86 115.056   4
  -7  17  -4 3306.19 171.983   8
   7 -17  -4 3498.29 113.682   9
   7  17  -2 2745.39 104.541   4
  -7  17  -2 2619.01 103.364   4
   7 -17  -2 2532.81 85.6127   9
   7  17  -2 2531.32 86.1817   9
  -7  17  -2 2426.28 164.247   8
   7  17   0 13.5977 20.3489   4
  -7  17   0 35.8250 21.7555   4
  -7  17   0-13.4401 38.3938   8
   7 -17   0 14.2868 13.9286   9
   7  17   0 16.2091 11.5429   2
   7  17   0 27.7191 26.9148   3
   7  17   2 2714.90 130.149   4
  -7  17   2 2714.06 116.551   4
   7  17   2 2516.68 86.1650   2
   7  17   4 3636.89 164.703   4
   7  17   4 3442.72 200.281   3
   7  17   6 371.654 61.9597   4
   7  17   6 349.221 45.9192   9
   7  17   6 221.422 67.5779   3
   7  17   8 1119.49 107.248   4
   7  17   8 759.826 114.362   3
   7  17  10 1619.88 168.803   3
  -7  18  -9 245.497 47.2814   8
  -7  18  -7 1888.96 117.300   8
  -7  18  -5 854.968 85.9176   8
  -7  18  -3 392.326 39.3932   4
  -7  18  -3 273.800 61.1473   8
  -7  18  -1 1431.84 76.4621   4
   7  18  -1 1441.23 78.3082   4
  -7  18  -1 1275.18 128.455   8
   7  18   1 1571.47 93.0044   4
  -7  18   1 1697.70 87.4611   4
   7  18   1 1840.55 112.689   3
   7  18   3 387.324 54.9681   4
   7  18   3 301.088 62.4790   3
   7  18   3 319.279 32.6463   2
   7  18   5 996.679 91.7294   4
   7  18   5 879.108 111.890   3
   7  18   7 2179.29 144.787   4
   7  18   7 1772.12 165.185   3
   7  18   9 202.250 73.2774   3
  -7  19  -6 1238.42 104.305   8
  -7  19  -4 631.976 81.8631   8
   7  19  -2 837.597 54.2171   4
  -7  19  -2 793.389 101.550   8
  -7  19   0 1738.77 86.8201   4
   7  19   0 1674.34 90.6935   4
   7  19   2 892.765 73.3182   4
   7  19   4 733.880 74.7583   4
   7  19   4 664.817 92.8633   3
   7  19   6 1119.13 131.825   3
   7  19   8 625.956 109.064   3
  -7  20  -3-6.44479 34.1170   8
  -7  20  -1 165.633 61.1186   8
  -7  20   1 164.329 65.7741   8
   7  20   3 1.88284 25.0630   4
  -8   0 -20 112.625 18.7011   5
   8   0 -18 171.522 55.7197   9
  -8   0 -18 206.264 25.2768   5
  -8   0 -16 1804.60 109.266   7
   8   0 -16 2049.88 151.874   9
  -8   0 -14 1751.74 144.062   4
  -8   0 -14 1177.78 82.1164   7
  -8   0 -12 1956.82 139.198   4
   8   0 -12 2053.70 65.0182   1
  -8   0 -10 3552.32 171.854   4
  -8   0 -10 2549.82 118.761   7
  -8   0  -8 5862.45 209.494   4
  -8   0  -6 10433.5 285.460   4
  -8   0  -6 10830.8 338.580   3
  -8   0  -4 876.823 67.9346   4
  -8   0  -4 960.792 84.9122   3
   8   0  -4 870.899 48.7693   2
  -8   0  -2 4499.54 154.416   4
  -8   0  -2 4572.34 179.357   3
   8   0  -2 4515.80 132.807   2
  -8   0   0 24640.6 479.897   4
   8   0   0 23765.0 475.823   2
  -8   0   2 4287.71 143.703   4
   8   0   2 4614.40 116.889   8
  -8   0   4 935.475 60.4717   4
  -8   0   6 9319.67 227.771   4
  -8   0   6 8621.63 260.923   6
  -8   0   8 4513.87 136.302   2
   8   0   8 4270.15 167.782   4
  -8   0   8 4762.13 150.612   4
  -8   0   8 4270.49 167.566   6
  -8   0  10 2489.96 98.2868   2
   8   0  10 2486.53 129.951   4
  -8   0  10 2732.79 110.095   4
  -8   0  12 1537.02 76.2239   2
   8   0  12 1280.67 95.1424   4
  -8   0  12 1496.82 83.1361   4
   8   0  14 1227.34 95.6939   4
  -8   0  14 1168.08 68.1513   2
   8   0  14 1137.83 63.8688   8
  -8   0  14 1017.68 72.6865   5
  -8   0  16 1876.34 92.6254   2
   8   0  16 1918.87 91.0507   8
  -8   0  16 1700.45 89.4847   5
   8   0  18 198.287 47.2184   4
  -8   0  18 206.417 34.0276   2
   8   0  18 221.356 37.3547   8
  -8   0  18 179.493 29.0564   5
  -8   0  20 131.660 30.7726   2
   8   0  20 131.032 42.6090   4
  -8   0  20 110.955 21.3716   5
  -8  -1 -19 536.925 65.2848   7
  -8  -1 -19 458.890 33.9943   5
  -8   1 -19 541.429 38.1656   5
   8  -1 -17 724.472 97.4763   9
   8   1 -17 859.993 102.091   9
  -8   1 -17 712.026 71.9867   7
  -8   1 -15 221.153 39.5994   7
  -8  -1 -15 198.873 38.0813   7
   8  -1 -15 260.943 58.9819   9
   8   1 -15 231.263 57.0897   9
  -8   1 -13 2030.21 142.199   4
  -8  -1 -13 1940.26 152.082   4
   8   1 -13 2417.97 82.9994   1
  -8   1 -13 1350.13 89.3018   7
  -8  -1 -13 1388.71 89.6356   7
  -8   1 -11 952.927 90.7358   4
  -8  -1 -11 900.051 95.9085   4
  -8   1 -11 756.432 62.5199   7
  -8  -1 -11 721.192 62.0141   7
  -8   1  -9 233.813 57.9164   3
  -8   1  -9 305.613 47.9539   4
  -8  -1  -9 290.022 52.1382   4
  -8  -1  -9 169.831 32.4274   7
  -8   1  -7 2791.81 164.277   3
  -8  -1  -7 2702.98 136.090   4
  -8   1  -7 2634.38 125.964   4
  -8   1  -5 856.813 84.7037   3
  -8  -1  -5 905.663 87.4589   3
  -8   1  -5 925.721 70.2433   4
  -8  -1  -5 967.190 73.9296   4
   8   1  -3 730.093 47.2233   2
  -8  -1  -3 897.882 78.9417   3
   8  -1  -3 877.019 52.3632   2
  -8   1  -3 833.786 64.4635   4
  -8   1  -3 894.074 78.6457   3
  -8  -1  -3 834.607 64.5333   4
   8  -1  -1 1627.90 81.2379   2
   8   1  -1 1897.72 81.3687   2
  -8   1  -1 1815.18 90.2012   4
  -8  -1  -1 1879.39 93.6050   4
  -8  -1  -1 1925.50 106.230   3
   8  -1   1 1815.99 91.7819   2
   8   1   1 1753.73 91.1917   2
  -8   1   1 2078.45 93.5103   4
  -8  -1   1 1884.16 92.4192   4
  -8  -1   3 805.647 56.9253   4
  -8   1   3 728.134 54.2697   4
  -8   1   5 692.934 53.2952   4
  -8  -1   5 693.522 52.3315   4
  -8   1   5 746.645 52.4185   2
   8  -1   5 663.010 25.8878   8
  -8  -1   5 670.649 67.7708   6
  -8   1   5 639.747 60.6123   6
  -8   1   7 2727.78 109.193   4
  -8  -1   7 2772.24 107.849   4
   8  -1   7 2463.50 119.306   4
  -8  -1   7 2435.31 92.2109   2
   8  -1   7 2614.66 69.8060   8
  -8  -1   7 2349.32 128.526   6
  -8   1   7 2320.51 117.227   6
   8  -1   9 210.137 38.0039   4
   8   1   9 227.867 42.0538   4
  -8   1   9 233.008 32.8945   4
  -8  -1   9 255.948 33.7188   4
  -8   1   9 228.660 30.5830   2
  -8  -1   9 271.869 30.6324   2
   8  -1   9 239.954 22.9378   8
  -8  -1   9 225.737 42.0476   6
   8  -1  11 664.191 66.7202   4
   8   1  11 549.939 63.7393   4
  -8   1  11 639.188 54.1039   4
  -8  -1  11 707.428 54.5218   4
  -8   1  11 622.770 49.6286   2
  -8  -1  11 624.690 45.6000   2
   8  -1  11 654.810 42.7517   8
  -8  -1  11 566.002 60.5503   6
  -8   1  11 588.357 56.7804   5
   8  -1  13 1773.58 110.674   4
   8   1  13 1700.66 113.927   4
  -8   1  13 1649.67 83.7722   2
  -8  -1  13 1697.26 78.7990   2
   8  -1  13 1664.41 76.1349   8
  -8   1  13 1568.95 89.9175   5
  -8  -1  13 1465.27 92.6877   6
   8   1  15 264.172 51.8511   4
  -8  -1  15 246.677 37.0623   4
  -8   1  15 197.769 32.4326   2
  -8  -1  15 191.050 29.0196   2
   8  -1  15 190.643 31.9794   8
  -8   1  15 160.522 41.3671   8
  -8   1  15 189.540 31.3326   5
  -8  -1  15 209.792 35.4202   5
   8  -1  17 733.641 76.7405   4
  -8  -1  17 704.364 60.2592   4
  -8  -1  17 657.047 52.5437   2
  -8   1  17 614.059 55.5206   2
   8   1  17 563.822 50.3999   8
   8  -1  17 647.940 57.7115   8
  -8  -1  17 524.598 50.3010   5
  -8   1  17 606.389 51.4763   5
   8  -1  19 565.148 67.5928   4
   8   1  19 549.221 71.5835   4
  -8   1  19 500.021 52.0699   2
  -8  -1  19 593.636 51.8054   2
   8  -1  19 562.029 58.9208   8
  -8  -1  19 398.006 39.0228   5
  -8   1  19 474.039 40.9423   5
  -8  -2 -20 590.733 70.2568   7
  -8  -2 -20 547.578 32.9060   5
  -8   2 -18 710.217 73.9651   7
   8  -2 -18 769.420 102.063   9
   8   2 -18 812.492 101.278   9
  -8  -2 -18 679.013 70.5983   7
  -8  -2 -18 686.634 45.2944   5
   8  -2 -16 1128.70 116.087   9
   8   2 -16 1306.32 118.643   9
  -8   2 -16 1248.92 91.6164   7
  -8  -2 -14 417.327 51.5095   7
  -8   2 -14 421.021 51.5560   7
  -8   2 -12 764.961 83.9520   4
  -8  -2 -12 907.264 102.814   4
   8   2 -12 894.712 49.1585   1
  -8   2 -12 565.333 56.0248   7
  -8  -2 -12 593.959 56.9201   7
  -8   2 -10 4756.70 239.069   3
  -8  -2 -10 4562.55 211.015   4
  -8   2 -10 4846.67 190.547   4
  -8   2  -8 982.030 101.216   3
  -8  -2  -8 1062.82 91.9744   4
  -8   2  -8 1015.67 77.2287   4
  -8  -2  -8 778.358 65.3605   7
  -8   2  -6 481.621 67.0878   3
  -8  -2  -6 434.674 54.8037   4
  -8   2  -6 457.113 50.0545   4
  -8  -2  -4 3874.17 174.148   3
   8  -2  -4 3634.91 116.630   2
   8   2  -4 3455.57 98.5736   2
  -8   2  -4 3522.94 138.785   4
  -8   2  -4 3797.56 171.429   3
  -8  -2  -4 3424.66 145.277   4
   8  -2  -2 2128.53 91.9099   2
   8   2  -2 2203.49 82.0862   2
  -8   2  -2 2345.84 102.602   4
  -8  -2  -2 2243.08 106.646   4
   8   2   0 155.751 25.6810   2
  -8  -2   0 176.477 32.5736   3
  -8   2   0 149.191 27.1196   4
  -8  -2   0 146.780 28.8755   4
  -8  -2   2 2216.93 99.2130   4
  -8   2   2 2196.57 96.6427   4
  -8   2   4 3146.38 118.735   2
  -8  -2   4 3145.71 117.682   4
  -8   2   4 3075.27 115.997   4
  -8   2   6 385.131 40.8441   4
   8  -2   6 339.423 42.5765   4
  -8  -2   6 355.528 38.2423   4
  -8   2   6 462.533 42.4153   2
   8  -2   6 432.216 27.1115   8
  -8  -2   6 279.812 49.0521   6
  -8   2   6 320.751 42.5701   5
  -8   2   8 1001.37 65.7548   4
  -8  -2   8 1033.20 63.8474   4
   8  -2   8 1080.37 77.3288   4
  -8  -2   8 928.250 51.4860   2
   8  -2   8 1059.76 48.5468   8
  -8   2   8 898.552 68.7923   5
  -8  -2   8 855.595 81.4174   6
   8  -2  10 3740.74 152.403   4
  -8   2  10 3790.17 138.145   4
  -8   2  10 3799.45 132.290   2
  -8  -2  10 3982.15 116.142   2
   8  -2  10 4289.19 119.260   8
   8  -2  12 687.950 65.2826   4
   8   2  12 642.923 72.0790   4
  -8   2  12 763.082 57.5984   2
  -8  -2  12 767.152 48.4907   2
   8  -2  12 756.115 52.0299   8
  -8   2  12 708.007 67.9234   8
  -8  -2  12 629.555 66.2568   6
  -8   2  12 688.427 58.6649   5
   8   2  14 450.083 63.7415   4
   8   2  14 462.565 77.7676   3
  -8  -2  14 486.015 47.7206   4
  -8   2  14 495.922 48.9211   2
  -8  -2  14 468.718 41.0351   2
   8  -2  14 458.630 45.5623   8
  -8   2  14 445.367 59.3297   8
  -8   2  14 398.370 43.6802   5
  -8  -2  14 346.067 48.2182   6
   8  -2  16 1322.02 97.7951   4
   8   2  16 1369.68 112.809   4
   8   2  16 1083.66 120.050   3
  -8  -2  16 1284.09 77.3452   4
  -8  -2  16 1347.88 69.5077   2
  -8   2  16 1256.98 79.4515   2
   8  -2  16 1241.84 81.0862   8
  -8   2  16 1129.05 96.0165   8
  -8   2  16 1166.55 72.7877   5
   8  -2  18 870.280 81.0917   4
   8   2  18 849.579 107.646   3
  -8  -2  18 808.330 56.2285   2
  -8   2  18 814.142 67.0953   2
   8  -2  18 904.701 74.5527   8
   8   2  18 835.659 61.4643   8
  -8   2  18 645.447 49.9200   5
  -8  -2  18 661.262 55.5594   5
  -8  -2  20 688.668 54.3509   2
  -8  -2  20 457.927 39.3886   5
  -8  -3 -19 1756.29 113.302   7
  -8  -3 -19 1667.35 66.5596   5
  -8  -3 -17 1187.75 88.6911   7
  -8   3 -17 1122.98 91.0077   7
   8  -3 -17 1177.70 124.478   9
   8   3 -17 1234.08 118.791   9
  -8   3 -15 1252.19 90.3196   7
   8  -3 -15 1534.09 131.561   9
   8   3 -15 1365.34 116.874   9
  -8   3 -13 1840.68 105.529   7
  -8  -3 -13 1843.70 103.822   7
  -8  -3 -11 6772.87 278.820   4
  -8   3 -11 6811.75 232.741   4
  -8   3 -11 6862.43 301.346   3
   8  -3 -11 5904.39 138.881   1
  -8   3 -11 4790.54 175.254   7
  -8  -3 -11 5003.60 180.800   7
  -8   3  -9 10438.1 361.396   3
  -8   3  -9 9868.17 279.356   4
  -8  -3  -9 10309.2 333.381   4
  -8   3  -7 1891.11 132.776   3
  -8   3  -7 1783.32 98.2146   4
  -8   3  -5 6533.05 197.898   4
  -8  -3  -5 6629.52 219.288   4
  -8  -3  -3 20080.7 456.054   3
  -8   3  -3 20324.6 407.809   4
  -8  -3  -3 19386.7 431.515   4
   8   3  -1 4528.06 133.441   2
  -8  -3  -1 4690.29 169.886   3
  -8   3  -1 4562.15 147.514   4
  -8  -3  -1 4427.23 158.090   4
   8  -3  -1 5049.88 220.667   6
  -8  -3   1 4555.04 154.517   4
  -8   3   1 4604.72 146.153   4
  -8   3   3 19310.9 393.479   2
  -8  -3   3 18935.2 390.325   4
  -8   3   3 17929.3 382.755   4
  -8   3   5 6211.56 177.883   2
  -8  -3   5 6066.60 173.565   4
  -8   3   5 6187.77 174.304   4
   8  -3   5 5789.75 179.681   4
  -8   3   5 5549.18 184.362   5
  -8   3   7 1519.85 81.5059   4
   8  -3   7 1495.28 87.0264   4
  -8  -3   7 1581.77 80.9969   4
  -8   3   7 1653.02 83.7716   2
  -8   3   7 1633.45 81.5895   8
   8  -3   7 1854.59 77.4903   8
  -8  -3   7 1383.44 112.168   6
  -8   3   7 1571.83 90.1264   5
  -8   3   9 8059.11 221.569   4
   8  -3   9 8590.67 237.427   4
  -8  -3   9 8304.03 184.063   2
  -8  -3   9 8998.43 332.040   8
  -8   3   9 8216.67 223.590   8
   8  -3   9 9838.57 214.013   8
  -8  -3   9 6875.86 265.976   6
   8   3  11 4519.71 199.043   4
   8   3  11 5040.27 241.172   3
  -8  -3  11 6030.16 169.108   4
  -8   3  11 5435.80 168.153   2
  -8  -3  11 5635.38 137.706   2
  -8   3  11 5485.88 179.117   8
   8  -3  11 5800.43 165.936   8
  -8  -3  11 4378.98 197.434   6
  -8   3  11 4721.33 164.545   5
   8   3  13 1903.25 129.758   4
  -8  -3  13 2160.16 96.7617   4
   8   3  13 1835.08 149.516   3
  -8   3  13 2049.92 102.006   2
  -8  -3  13 2183.74 80.1706   2
  -8   3  13 2093.60 112.046   8
   8  -3  13 2387.20 108.530   8
  -8   3  13 1927.04 97.3530   5
  -8  -3  13 1932.08 119.785   6
   8   3  15 1278.81 127.693   3
   8  -3  15 1451.74 96.0204   4
   8   3  15 1255.95 109.927   4
  -8  -3  15 1424.72 80.3706   4
  -8  -3  15 1320.95 63.6592   2
  -8   3  15 1280.24 81.7779   2
  -8   3  15 1305.95 94.1462   8
   8  -3  15 1532.38 93.4743   8
  -8  -3  15 1099.77 83.9533   6
  -8   3  15 1255.48 75.9875   5
   8   3  17 1281.51 133.142   3
   8  -3  17 1268.49 93.3727   4
   8   3  17 1219.68 110.268   4
  -8  -3  17 1239.20 76.3971   4
  -8  -3  17 1273.71 64.8431   2
  -8   3  17 1307.21 85.8153   2
   8  -3  17 1367.48 94.0395   8
  -8   3  17 1091.50 67.8039   5
   8  -3  19 2184.73 123.073   4
  -8  -3  19 1866.79 83.3301   2
   8  -3  19 2145.13 125.455   8
  -8  -3  19 1537.82 83.8885   5
  -8   3  19 1720.21 76.1782   5
   8  -3  21 310.147 50.7607   4
  -8  -4 -20 2341.01 134.614   7
  -8  -4 -18 1228.29 93.0956   7
  -8   4 -18 1248.72 97.7663   7
   8  -4 -18 1319.89 136.161   9
   8   4 -18 1472.15 132.027   9
  -8  -4 -16 470.039 55.2522   7
  -8   4 -16 525.760 61.1697   7
   8  -4 -16 413.713 74.7325   9
   8   4 -16 571.675 80.5372   9
  -8   4 -14 2775.23 161.027   4
   8   4 -14 2994.50 115.500   1
  -8   4 -14 2065.75 115.895   7
   8  -4 -14 2258.49 157.295   9
   8   4 -14 2175.93 143.842   9
  -8  -4 -12 2974.03 196.553   4
   8   4 -12 2938.04 104.587   1
  -8   4 -12 1989.10 107.487   7
  -8  -4 -12 1964.25 107.419   7
   8  -4 -10 2223.79 88.3591   1
  -8  -4 -10 1990.39 107.483   7
  -8   4  -8 4515.81 218.533   3
  -8  -4  -8 4199.09 202.350   4
  -8   4  -8 4305.70 160.654   4
  -8   4  -6 1349.67 109.587   3
  -8  -4  -6 1412.56 103.900   4
  -8   4  -6 1385.26 82.4463   4
   8  -4  -6 1453.91 115.643   6
  -8   4  -4 3415.80 128.456   4
  -8  -4  -4 3085.66 143.900   4
   8  -4  -4 3506.39 178.247   6
  -8   4  -2 3833.46 132.034   4
  -8  -4  -2 3809.45 150.391   4
   8  -4  -2 3977.84 189.460   6
   8   4   0 1785.99 83.4341   2
  -8  -4   0 1834.46 96.5066   4
  -8   4   0 2020.01 91.8237   4
   8  -4   0 2038.78 131.975   6
  -8  -4   2 3846.69 131.631   3
  -8   4   2 3967.14 143.408   2
  -8  -4   2 3805.55 138.261   4
  -8   4   2 3783.89 132.925   4
  -8  -4   4 2836.78 113.803   4
   8  -4   4 2595.97 109.881   4
  -8   4   4 2920.01 111.649   4
  -8  -4   4 2739.42 99.1438   3
  -8   4   4 3042.27 119.694   2
  -8   4   4 2663.61 89.1685   8
   8  -4   4 3339.37 175.804   6
  -8   4   4 2560.37 115.271   5
  -8  -4   6 1401.56 75.3898   4
  -8  -4   6 1354.73 61.0750   3
  -8   4   6 1377.89 75.7355   4
   8  -4   6 1307.26 77.9277   4
  -8   4   6 1436.53 79.5427   2
  -8   4   6 1318.26 64.5431   8
   8  -4   6 1573.18 121.695   6
  -8   4   6 1223.77 77.1266   5
   8   4   8 3115.36 179.097   3
  -8   4   8 3529.95 133.861   4
   8  -4   8 3723.56 140.680   4
  -8   4   8 3937.35 139.090   2
   8  -4   8 4643.95 151.060   8
  -8   4   8 3669.32 124.499   8
   8  -4   8 4477.92 216.062   6
  -8   4   8 3331.55 134.862   5
   8   4  10 1724.21 139.944   3
   8   4  10 1560.39 113.642   4
  -8  -4  10 2225.26 95.2527   4
  -8   4  10 2168.38 98.1825   8
   8  -4  10 2559.65 116.203   8
   8   4  12 1899.84 130.965   4
   8   4  12 2001.31 157.106   3
  -8  -4  12 2510.24 102.632   4
   8  -4  12 2617.13 121.324   4
  -8   4  12 2259.26 108.087   2
  -8  -4  12 2389.52 75.7104   2
   8  -4  12 2466.72 158.928   1
  -8  -4  12 2469.35 185.671   8
  -8   4  12 2322.43 110.461   8
   8  -4  12 2765.40 126.460   8
  -8  -4  12 1721.22 125.464   6
  -8   4  12 2245.19 108.660   5
   8   4  14 1954.04 137.982   4
  -8  -4  14 2376.80 101.730   4
   8   4  14 2039.51 161.888   3
   8  -4  14 2534.70 121.898   4
  -8  -4  14 2275.31 77.5156   2
   8  -4  14 2304.29 160.117   1
  -8   4  14 2290.22 112.874   2
  -8   4  14 2246.16 116.686   8
   8  -4  14 2690.05 131.995   8
  -8  -4  14 1716.28 118.009   6
  -8   4  14 2109.53 102.167   5
   8  -4  16 565.170 59.7153   4
   8   4  16 546.520 76.8276   4
  -8  -4  16 552.136 49.7305   4
   8   4  16 466.985 82.4887   3
  -8  -4  16 550.694 38.0072   2
  -8   4  16 523.452 55.6097   2
  -8   4  16 531.257 61.5411   8
   8  -4  16 653.319 71.3811   8
  -8  -4  16 462.035 57.8220   6
  -8   4  16 423.351 44.2490   5
   8   4  18 1395.13 121.805   4
  -8  -4  18 1460.43 82.0663   4
  -8  -4  18 1484.87 66.8673   2
   8  -4  18 1547.87 114.981   8
  -8   4  18 1292.51 70.9756   5
   8  -4  20 2995.91 138.680   4
  -8   4  20 2496.71 116.672   7
   8  -4  22 14.9549 24.4790   4
  -8  -5 -19 1057.25 87.6708   7
  -8  -5 -19 992.794 54.4630   5
   8   5 -17 810.491 76.7917   1
  -8  -5 -17 561.022 62.4317   7
  -8   5 -17 492.077 63.1092   7
   8  -5 -17 638.547 94.7823   9
   8   5 -17 641.482 87.0105   9
  -8   5 -17 532.436 46.8978   5
  -8   5 -15 896.265 94.6191   4
  -8  -5 -15 647.242 63.4273   7
  -8   5 -15 665.578 67.9888   7
   8  -5 -15 657.746 90.2213   9
   8   5 -15 696.178 83.4709   9
  -8   5 -15 644.672 51.0240   5
  -8   5 -13 812.641 73.0546   7
  -8   5 -13 931.637 62.5235   5
  -8   5 -11 3128.43 145.160   4
  -8  -5 -11 3156.62 199.454   4
  -8   5 -11 3554.60 211.195   3
   8   5 -11 3362.03 117.903   1
  -8   5 -11 2351.32 116.696   7
   8   5 -11 2592.55 141.236   8
  -8  -5 -11 2338.71 116.781   7
  -8  -5  -9 5893.94 255.322   4
  -8   5  -9 6252.35 264.108   3
   8  -5  -9 5570.19 162.522   1
   8   5  -9 4808.06 194.357   8
  -8   5  -9 4299.83 161.154   7
  -8  -5  -9 4294.98 168.505   7
  -8   5  -7 333.311 43.4808   4
  -8  -5  -7 374.788 61.0481   4
  -8   5  -7 358.942 63.4738   3
   8  -5  -7 429.729 53.4917   1
   8   5  -7 272.309 46.4743   8
   8  -5  -7 325.733 57.5413   6
  -8  -5  -5 2137.77 126.294   4
  -8   5  -5 2162.32 99.7145   4
   8   5  -5 1689.32 113.661   8
   8  -5  -5 2072.58 133.363   6
  -8   5  -5 1682.06 89.2937   7
  -8   5  -3 11259.5 259.186   4
  -8  -5  -3 10175.1 286.300   4
   8  -5  -3 10451.0 328.201   6
  -8  -5  -1 1329.20 85.2425   4
  -8   5  -1 1396.59 75.3229   4
   8  -5  -1 1486.80 110.218   6
  -8   5  -1 1125.06 71.4489   7
  -8  -5   1 1377.10 82.3934   4
  -8   5   1 1346.39 74.0618   4
   8  -5   1 1496.27 110.597   6
  -8   5   1 1256.98 75.9429   7
  -8  -5   3 10749.8 260.066   4
  -8   5   3 10785.7 250.763   4
  -8   5   3 10651.1 264.283   2
  -8  -5   5 1867.58 89.3281   4
   8  -5   5 1729.31 87.8579   4
  -8   5   5 1816.83 88.5080   4
  -8   5   5 1853.68 92.9377   2
  -8  -5   5 1587.60 65.3762   3
  -8   5   5 1674.38 65.8590   8
   8  -5   5 1984.79 134.129   6
  -8   5   5 1553.39 87.8681   5
   8  -5   7 280.229 37.7053   4
  -8   5   7 315.215 38.5953   4
  -8   5   7 285.255 37.4058   2
  -8  -5   7 237.751 21.3434   3
  -8   5   7 288.590 30.4512   8
  -8   5   7 261.033 37.4326   5
   8  -5   7 372.779 63.1703   6
   8   5   9 4536.10 231.642   3
  -8  -5   9 5402.34 160.243   4
  -8   5   9 5654.99 177.773   2
   8  -5   9 6307.77 258.138   1
  -8   5   9 5270.61 155.635   8
   8   5  11 1859.97 131.929   4
   8   5  11 2150.68 163.370   3
   8  -5  11 2522.98 112.676   4
  -8  -5  11 2611.35 104.248   4
   8  -5  11 2936.27 175.742   1
  -8   5  11 2406.57 105.263   8
   8  -5  11 2916.68 148.557   8
   8  -5  11 3122.68 183.253   6
  -8  -5  11 1664.09 137.797   6
  -8   5  11 2433.74 112.858   5
   8   5  13 911.978 110.222   3
   8   5  13 863.254 91.9520   4
  -8  -5  13 1098.76 67.1190   4
   8  -5  13 1176.62 77.6163   4
  -8   5  13 1200.09 81.4411   2
   8  -5  13 1213.99 110.597   1
  -8   5  13 1119.54 75.6218   8
  -8  -5  13 1101.60 133.477   8
  -8  -5  13 815.253 91.2320   6
  -8   5  13 1022.95 72.6633   5
   8   5  15 664.280 98.3104   3
   8   5  15 784.157 89.6342   4
  -8  -5  15 856.790 59.2959   4
   8  -5  15 890.405 70.1404   4
  -8  -5  15 828.302 38.4091   2
  -8  -5  15 583.615 36.7309   3
  -8   5  15 869.827 72.1777   2
  -8   5  15 807.445 71.2027   8
   8  -5  15 1003.71 94.2269   8
  -8   5  15 773.247 59.9442   5
  -8  -5  15 590.259 72.1598   6
   8   5  17 460.236 72.6888   4
  -8  -5  17 551.201 50.3293   4
   8   5  17 436.512 84.8083   3
   8  -5  17 694.732 64.0805   4
  -8  -5  17 585.886 35.0121   2
  -8  -5  17 436.692 34.0161   3
   8  -5  17 666.871 82.3823   8
  -8  -5  17 462.070 59.1557   6
  -8   5  17 512.986 47.0193   5
  -8  -5  19 1153.61 71.2800   4
   8  -5  19 1408.62 91.1802   4
  -8   5  19 1107.25 73.0584   7
   8  -5  19 1454.10 123.943   8
  -8   5  19 1077.13 62.1293   5
  -8  -5  19 860.407 69.7613   6
   8  -5  21 104.281 30.8968   4
  -8  -6 -20 299.494 51.5457   7
   8   6 -18 561.802 70.4121   1
  -8  -6 -18 341.646 50.7638   7
  -8   6 -16 903.442 81.6206   7
   8  -6 -16 833.398 106.799   9
   8   6 -16 1101.28 105.971   9
  -8  -6 -16 864.994 72.7606   7
  -8   6 -16 946.860 63.8815   5
  -8   6 -14 9.32327 26.4342   4
   8   6 -14 1.47127 21.1790   1
  -8   6 -14 3.60144 19.3382   7
   8  -6 -14 3.15894 28.2520   9
   8   6 -14-5.10666 27.7822   9
  -8   6 -14 14.0574 15.3771   5
  -8  -6 -14 20.6916 23.7543   6
  -8  -6 -14 26.9606 20.2452   7
  -8   6 -12 62.7277 29.2460   4
  -8  -6 -12 30.1882 41.3204   4
   8   6 -12 108.452 27.3165   1
  -8   6 -12 73.5640 47.7312   3
   8   6 -12 98.0769 35.1230   8
  -8   6 -12 51.4368 24.0303   7
  -8  -6 -12 66.9754 33.4478   6
  -8   6 -12 58.0697 20.4370   5
  -8   6 -10 1836.79 102.408   4
  -8  -6 -10 2097.46 161.160   4
  -8   6 -10 2236.03 160.661   3
   8   6 -10 1350.77 105.610   8
  -8   6 -10 1403.11 86.7335   7
  -8  -6 -10 1345.08 90.1951   7
  -8  -6  -8 87.6694 40.9758   4
   8  -6  -8 76.1363 23.3920   1
  -8   6  -8 98.5941 42.3144   3
   8   6  -8 76.6599 33.1386   8
  -8   6  -8 73.7761 22.2236   5
   8  -6  -8 83.5687 37.1528   6
  -8   6  -8 56.9663 21.9947   7
  -8  -6  -8 59.7042 26.6801   7
  -8   6  -6 694.005 57.8777   4
  -8  -6  -6 678.226 78.1593   4
  -8   6  -6 709.305 81.2626   3
   8  -6  -6 782.416 69.3904   1
   8   6  -6 468.729 67.5882   8
  -8   6  -6 538.668 50.7600   7
   8  -6  -6 623.218 73.9878   6
  -8   6  -6 536.085 49.8651   5
  -8   6  -4 506.168 47.1510   4
  -8  -6  -4 656.569 70.2764   4
   8   6  -4 440.062 66.1760   8
   8  -6  -4 558.480 68.1472   6
  -8   6  -4 510.957 47.9605   7
  -8   6  -4 441.578 45.9559   5
  -8  -6  -2 147.977 33.2447   4
  -8   6  -2 169.122 28.4764   4
   8   6  -2 178.050 20.2099   2
   8   6  -2 165.804 52.7201   8
   8  -6  -2 226.036 46.0262   6
  -8   6  -2 133.524 25.6498   7
  -8  -6   0 931.302 72.0338   4
  -8   6   0 990.742 63.3025   4
   8  -6   0 1028.13 91.4023   6
  -8   6   0 824.606 60.0261   7
  -8  -6   2 127.755 27.9851   4
  -8   6   2 147.530 27.0389   4
  -8   6   2 145.851 29.3471   2
  -8   6   2 118.880 12.2435   8
   8  -6   2 164.513 40.8743   6
  -8   6   2 113.425 24.9440   7
   8   6   4 558.358 60.7561   4
  -8  -6   4 721.021 57.7160   4
  -8   6   4 689.228 54.5409   4
  -8   6   4 708.927 58.7083   2
  -8   6   4 600.004 33.5718   8
   8  -6   4 821.942 83.4511   6
  -8   6   4 654.796 58.9636   5
   8  -6   6 600.979 50.6959   4
  -8   6   6 531.523 49.4631   4
  -8   6   6 546.065 52.1704   2
  -8   6   6 493.957 35.0356   8
   8  -6   6 608.674 75.4144   6
  -8   6   6 470.385 50.1192   5
  -8  -6   8 82.5964 21.9992   4
  -8   6   8 60.9589 22.4494   2
   8   6   8 55.8878 33.2393   3
  -8   6   8 69.2744 17.1443   8
   8  -6   8 113.742 40.3562   6
  -8   6   8 68.2409 23.6445   5
  -8  -6  10 1787.50 83.6138   4
   8   6  10 1206.06 104.607   4
   8  -6  10 1780.82 89.9954   4
   8   6  10 1427.48 132.787   3
  -8   6  10 1945.78 101.070   2
   8  -6  10 1757.63 130.337   1
   8  -6  10 1697.62 115.353   2
  -8   6  10 1621.84 78.9132   8
   8  -6  10 2126.32 145.537   6
  -8  -6  12 69.1585 20.6967   4
   8   6  12 26.5601 27.0253   4
   8  -6  12 60.1935 22.6543   4
   8  -6  12 83.8946 37.3630   1
   8   6  12 60.5462 39.9912   3
   8  -6  12 52.3307 29.5100   2
  -8   6  12 55.7565 20.6069   8
   8  -6  12 68.6000 39.7867   8
   8  -6  12 33.7843 38.3060   6
  -8   6  12 35.4309 19.5555   5
   8  -6  14 37.0484 21.0026   4
  -8  -6  14 26.8908 18.2713   4
   8   6  14 8.59178 25.6256   4
  -8   6  14 8.57904 20.3576   2
   8   6  14 7.75694 30.2526   3
   8  -6  14-5.75002 38.8094   8
  -8   6  14 14.7440 18.6356   8
  -8  -6  14 8.86611 29.8561   6
  -8   6  14 22.1995 18.5365   5
   8   6  16 864.147 97.7495   4
   8  -6  16 1246.41 78.8671   4
  -8  -6  16 1129.22 66.2884   4
   8   6  16 966.771 121.510   3
  -8   6  16 1048.81 81.3264   8
   8  -6  16 1297.21 119.816   8
  -8  -6  16 794.713 84.6990   6
  -8   6  16 881.001 65.0272   5
  -8  -6  18 378.042 39.8926   4
   8  -6  18 425.125 48.5825   4
   8  -6  18 463.456 81.8503   8
  -8  -6  18 299.567 50.5692   6
  -8   6  18 369.807 40.8371   5
   8  -6  20 385.819 46.1617   4
  -8  -7 -21 43.5414 30.2842   7
   8   7 -19 373.276 69.9335   1
  -8  -7 -19 274.511 47.2214   7
   8   7 -17 337.550 56.3330   1
  -8  -7 -17 214.060 40.0383   7
  -8  -7 -17 211.567 37.9975   6
  -8   7 -17 225.972 35.0446   5
   8   7 -15 8.53929 27.8112   1
  -8   7 -15-3.94593 24.0994   7
  -8  -7 -15 19.9689 23.2666   6
  -8  -7 -15 44.7666 22.4576   7
  -8   7 -15 43.4561 19.9343   5
  -8   7 -13 810.740 77.2233   4
  -8   7 -13 623.371 65.5608   7
   8   7 -13 652.837 77.2005   9
   8   7 -13 748.759 84.2005   8
  -8  -7 -13 618.366 75.7803   6
  -8  -7 -13 705.041 64.9243   7
  -8   7 -13 636.169 54.1660   5
  -8  -7 -11 59.7588 52.6420   4
  -8   7 -11 61.1704 25.8892   4
   8   7 -11 78.2296 24.9242   1
  -8   7 -11 21.0667 38.0310   3
  -8   7 -11 53.3921 25.4396   7
   8   7 -11 42.4505 29.1079   8
   8  -7 -11 67.7341 37.4493   6
  -8  -7  -9 476.731 81.2291   4
  -8   7  -9 510.019 52.0911   4
  -8   7  -9 534.868 80.0237   3
   8   7  -9 307.211 56.8724   8
  -8   7  -9 416.763 47.2556   7
  -8   7  -9 401.021 43.8419   5
  -8  -7  -9 354.005 50.5226   7
  -8  -7  -7 884.105 96.6137   4
  -8   7  -7 1074.13 101.198   3
   8  -7  -7 880.500 69.1559   1
  -8   7  -7 777.820 61.6006   7
   8   7  -7 723.872 85.7256   8
   8  -7  -7 918.607 89.4040   6
  -8   7  -7 761.691 59.8858   5
  -8  -7  -5 53.4216 30.8878   4
  -8   7  -5 12.8407 16.6853   4
   8  -7  -5 43.9012 22.5636   1
   8   7  -5 5.79293 26.2295   8
  -8   7  -5 28.5467 17.7534   5
  -8   7  -5 31.0471 17.5801   7
   8  -7  -5 6.94574 25.6801   6
  -8   7  -3 1478.51 78.3673   4
  -8  -7  -3 1450.57 104.413   4
   8   7  -3 1420.41 44.3849   2
   8   7  -3 1244.18 124.738   8
   8  -7  -3 1426.92 107.286   6
  -8   7  -3 1206.02 72.9578   7
  -8  -7  -1 222.852 39.5855   4
  -8   7  -1 247.987 33.0476   4
   8   7  -1 223.736 25.5237   2
   8   7  -1 220.974 58.2629   8
   8  -7  -1 254.931 50.5329   6
  -8   7  -1 204.354 30.8026   7
  -8   7   1 199.699 30.9407   4
  -8  -7   1 184.268 34.3955   4
  -8   7   1 204.973 36.0343   2
  -8   7   1 182.593 12.0120   8
   8  -7   1 238.490 48.1122   6
  -8   7   3 1352.96 83.7489   2
   8  -7   3 1445.49 114.833   1
   8   7   3 1333.01 89.4958   4
  -8   7   3 1255.38 76.0625   4
   8  -7   3 1513.07 113.396   6
  -8   7   3 1120.54 77.3521   5
  -8   7   5 14.3390 17.1114   2
   8   7   5 7.45086 19.6810   4
  -8   7   5 1.22406 13.7509   4
  -8   7   5-1.41268 16.5853   5
   8  -7   5-2.40704 25.6174   6
  -8   7   5 8.84033 14.5607   7
  -8   7   7 834.902 66.7924   2
   8  -7   7 833.484 76.8313   2
   8   7   7 751.073 78.0545   4
  -8  -7   7 929.785 61.3796   4
  -8   7   7 710.026 63.5248   5
  -8  -7   9 486.957 44.6953   4
   8   7   9 283.111 52.8935   4
   8  -7   9 514.728 46.6452   4
  -8   7   9 457.702 51.5764   2
   8  -7   9 438.150 58.9375   2
   8   7   9 444.783 75.6427   3
   8  -7   9 440.682 70.5630   1
  -8   7   9 456.228 39.5011   8
  -8  -7  11 29.2089 17.5587   4
   8   7  11 31.8871 27.4646   4
   8  -7  11 32.8239 18.5981   4
  -8   7  11 43.2428 24.2092   2
   8  -7  11 41.8517 35.1994   1
   8   7  11 31.7261 34.1419   3
   8  -7  11 34.9235 25.1459   2
  -8   7  11 47.6746 18.7648   8
   8  -7  11 36.0822 36.6852   6
  -8   7  11 29.4897 19.6498   5
  -8  -7  13 702.898 51.4483   4
   8   7  13 553.812 76.2634   4
   8  -7  13 730.281 57.8978   4
   8   7  13 555.849 91.3858   3
   8  -7  13 712.096 78.0829   2
  -8   7  13 719.461 58.8507   8
  -8   7  13 698.735 61.3562   5
   8  -7  13 849.558 99.4152   6
  -8  -7  15 64.0741 20.7565   4
   8   7  15 37.1157 31.6563   4
   8  -7  15 85.2477 25.4788   4
   8   7  15 33.1320 41.0763   3
   8  -7  15 68.9638 34.5473   2
  -8   7  15 61.2813 25.0255   8
   8  -7  15 44.0946 42.6663   8
  -8   7  15 38.2882 21.5287   5
  -8  -7  15 15.9268 33.0066   6
   8  -7  17 261.832 37.0498   4
  -8  -7  17 227.437 31.9801   4
   8  -7  17 279.883 72.6445   8
  -8  -7  17 141.808 44.2332   6
  -8   7  17 186.898 33.9457   5
   8  -7  19 359.351 41.9836   4
   8  -7  19 385.451 85.5685   8
  -8  -7  19 175.808 41.5840   6
  -8  -8 -20 48.9346 29.6260   7
  -8  -8 -18 174.497 38.9502   7
  -8  -8 -18 167.944 34.7859   6
   8  -8 -16 926.237 112.373   9
   8   8 -16 1026.87 104.078   9
  -8  -8 -16 936.369 76.1776   7
  -8  -8 -16 913.178 83.1520   6
  -8   8 -16 1039.36 72.0055   5
  -8   8 -14 116.852 38.2755   4
   8   8 -14 125.254 39.5547   1
   8   8 -14 103.270 39.6332   8
  -8   8 -14 100.625 32.7782   7
   8  -8 -14 159.818 50.0054   9
   8  -8 -14 125.497 46.5977   6
  -8  -8 -14 104.625 29.1227   7
  -8   8 -14 110.238 27.3576   5
  -8   8 -12 419.875 53.2719   4
   8   8 -12 302.457 57.8299   8
  -8   8 -12 258.025 43.4722   7
   8  -8 -12 319.415 59.9456   6
  -8  -8 -12 246.023 40.5947   7
  -8   8 -12 290.910 39.5503   5
  -8   8 -10 2114.12 104.588   4
  -8  -8 -10 2340.84 187.823   4
  -8   8 -10 2363.34 163.711   3
   8  -8 -10 1727.35 72.6261   1
  -8   8 -10 1676.28 99.0513   7
   8   8 -10 1651.07 128.451   8
   8  -8 -10 1846.79 131.496   6
  -8  -8  -8 745.153 98.9773   4
  -8   8  -8 877.561 95.8884   3
  -8   8  -8 668.880 57.7213   4
   8  -8  -8 708.391 58.8341   1
   8   8  -8 623.738 82.2782   8
  -8   8  -8 614.827 57.1004   7
  -8   8  -8 651.543 56.8005   5
   8  -8  -8 691.716 81.5376   6
  -8  -8  -6 1669.51 130.960   4
   8  -8  -6 1654.71 98.3715   1
   8   8  -6 1389.17 126.239   8
  -8   8  -6 1365.46 81.2836   7
   8  -8  -6 1761.55 125.234   6
  -8   8  -6 1427.88 84.7396   5
  -8  -8  -4 1539.11 115.255   4
  -8   8  -4 1257.06 75.3287   7
   8   8  -4 1340.93 130.419   8
   8  -8  -4 1618.02 118.309   6
  -8   8  -4 1116.46 76.7938   5
  -8  -8  -2 1205.04 94.3454   4
  -8   8  -2 1407.31 75.7834   4
   8   8  -2 1223.98 47.3627   2
   8   8  -2 998.210 117.499   8
  -8   8  -2 1012.94 66.2161   7
   8  -8  -2 1319.17 105.884   6
  -8  -8   0 3645.70 152.835   4
  -8   8   0 3461.71 124.456   4
   8  -8   0 3788.15 180.724   6
  -8   8   2 1254.11 84.1743   2
   8  -8   2 1271.54 107.546   1
   8   8   2 1139.81 82.8656   4
  -8   8   2 1218.89 72.8809   4
   8  -8   2 1398.84 109.418   6
  -8   8   4 1406.73 88.8259   2
   8  -8   4 1586.32 122.861   1
   8   8   4 1173.31 89.8045   4
  -8   8   4 1367.39 78.7211   4
  -8  -8   4 1512.17 84.9836   4
   8  -8   4 1690.95 120.269   6
  -8   8   4 1221.40 82.9551   5
  -8   8   4 1170.72 68.9848   7
   8  -8   6 1415.35 98.3238   2
  -8   8   6 1691.94 97.2320   2
   8  -8   6 1822.93 133.923   1
   8   8   6 1395.45 105.085   4
  -8  -8   6 1634.48 84.6702   4
   8  -8   6 1995.94 133.689   6
  -8   8   6 1566.68 93.8358   5
  -8   8   6 1559.83 77.6577   7
  -8   8   8 667.021 61.5915   2
   8  -8   8 641.078 69.6974   2
   8  -8   8 679.046 84.3972   1
   8   8   8 451.671 74.4937   3
   8   8   8 564.624 71.1294   4
  -8  -8   8 647.976 52.4331   4
  -8   8   8 577.914 57.9163   5
  -8   8  10 1878.60 106.116   2
   8  -8  10 1665.25 126.479   1
   8  -8  10 1681.09 113.847   2
   8   8  10 1355.33 132.810   3
  -8  -8  10 1993.87 88.7168   4
   8   8  10 1295.89 112.299   4
  -8   8  10 1575.61 96.1968   5
   8  -8  10 2238.62 146.637   6
  -8  -8  12 458.379 41.8819   4
   8   8  12 329.154 60.3940   4
   8  -8  12 381.187 39.8218   4
  -8   8  12 417.986 52.9583   2
   8  -8  12 386.690 59.6195   2
   8   8  12 257.147 64.6063   3
  -8   8  12 386.019 41.4109   8
   8  -8  12 468.004 73.0138   6
  -8   8  12 395.601 48.7364   5
  -8  -8  14 132.854 25.8212   4
   8  -8  14 124.016 27.4709   4
   8   8  14 130.709 46.1299   4
   8   8  14 126.765 52.7586   3
   8  -8  14 151.887 42.7673   2
  -8   8  14 132.095 30.5015   8
  -8   8  14 116.883 30.5131   5
   8  -8  14 157.972 54.8335   6
   8   8  16 832.983 116.193   3
  -8  -8  16 1105.46 62.9280   4
   8  -8  16 1070.40 66.6127   4
  -8   8  16 935.300 71.3359   5
   8  -8  18 246.986 34.4796   4
  -8  -8  18 141.627 44.7280   6
  -8  -9 -19 1244.42 91.8960   7
   8   9 -17 171.307 51.3249   1
  -8  -9 -17 130.331 34.1915   7
   8  -9 -17 151.982 56.8237   9
   8   9 -17 167.529 49.9274   9
  -8  -9 -17 95.4826 35.6984   6
  -8   9 -15 1091.60 92.0875   4
   8  -9 -15 896.915 108.923   9
   8   9 -15 843.338 91.9409   9
  -8  -9 -15 837.896 70.8187   7
   8   9 -15 995.666 105.811   8
   8  -9 -15 912.453 101.795   6
  -8   9 -15 868.227 68.6912   5
  -8   9 -13 3482.28 152.052   4
   8   9 -13 3199.55 186.499   8
  -8   9 -13 3001.25 146.977   7
   8  -9 -13 2787.14 177.422   9
   8   9 -13 3137.22 166.405   9
   8  -9 -13 3565.25 187.914   6
  -8  -9 -13 2819.41 133.502   7
  -8   9 -13 2861.39 128.313   5
  -8   9 -11 1685.66 96.0612   4
   8   9 -11 1800.07 104.259   1
   8   9 -11 1355.81 120.977   8
  -8   9 -11 1243.03 89.1257   7
   8  -9 -11 1617.50 123.881   6
  -8  -9 -11 1329.80 93.0062   7
  -8   9  -9 1763.59 138.829   3
  -8   9  -9 1787.16 93.6405   4
  -8  -9  -9 1807.90 163.584   4
   8  -9  -9 1501.72 77.1511   1
   8   9  -9 1398.65 124.757   8
  -8   9  -9 1398.74 90.1111   7
  -8   9  -9 1413.05 85.6607   5
  -8  -9  -9 1233.51 89.7785   7
  -8  -9  -7 4943.78 248.671   4
  -8   9  -7 4430.39 148.038   4
  -8   9  -7 3812.67 148.809   7
   8   9  -7 3824.38 211.354   8
   8  -9  -7 4641.25 209.342   6
  -8   9  -7 3783.78 148.576   5
  -8  -9  -5 3286.32 182.295   4
  -8   9  -5 2877.01 113.126   4
  -8   9  -5 2534.19 113.518   7
   8   9  -5 2811.76 191.945   8
   8  -9  -5 3358.31 171.596   6
  -8   9  -5 2728.51 123.492   5
  -8   9  -3 2807.49 69.6778   8
   8   9  -3 3031.61 211.666   8
  -8   9  -3 2914.09 128.553   5
  -8   9  -1 4230.41 138.141   4
   8  -9  -1 4249.90 187.217   1
   8  -9  -1 4399.04 198.326   6
  -8   9   1 4273.01 145.176   4
  -8   9   1 4300.87 165.909   2
   8  -9   1 4198.33 187.950   1
  -8   9   1 3914.46 131.534   7
   8  -9   3 3202.54 166.670   1
  -8   9   3 3564.56 145.801   2
   8   9   3 2955.93 141.746   4
  -8   9   3 3358.81 125.845   4
   8   9   3 2888.60 150.813   3
  -8  -9   3 3156.36 131.916   4
  -8   9   3 2879.43 131.552   5
  -8   9   3 2791.82 108.298   7
   8  -9   3 3637.11 180.930   6
   8  -9   5 2804.05 156.812   1
   8  -9   5 2536.86 133.442   2
  -8   9   5 2897.91 131.991   2
   8   9   5 2530.59 137.551   4
  -8   9   5 2849.13 119.208   4
  -8  -9   5 2903.44 119.937   4
  -8   9   5 2512.29 123.532   5
  -8   9   5 2579.56 97.7137   7
   8  -9   5 3254.69 169.898   6
   8  -9   7 4695.30 209.627   1
   8  -9   7 4160.13 179.931   2
  -8   9   7 4732.05 177.434   2
   8   9   7 3960.98 190.166   4
  -8  -9   7 4964.99 155.050   4
   8  -9   7 5585.95 228.281   6
  -8   9   7 4576.15 172.256   5
  -8   9   7 4655.03 138.812   7
   8  -9   9 1445.16 115.527   1
  -8   9   9 1765.90 104.844   2
   8  -9   9 1614.91 111.212   2
   8   9   9 1292.60 111.872   4
  -8  -9   9 1537.66 78.5673   4
  -8   9   9 1620.38 74.6983   7
   8  -9  11 1302.80 101.199   2
   8   9  11 1062.75 122.406   3
  -8  -9  11 1300.65 70.3920   4
   8   9  11 921.515 98.9835   4
   8  -9  11 1570.80 126.424   6
  -8   9  11 1263.27 87.2861   5
  -8   9  11 1382.53 67.0928   7
   8  -9  13 3781.48 178.650   2
   8   9  13 2785.79 205.892   3
  -8  -9  13 3485.53 116.096   4
   8   9  13 2428.02 167.627   4
   8  -9  13 4494.88 216.672   6
  -8   9  13 3418.05 146.245   5
   8   9  15 615.580 103.716   3
  -8  -9  15 866.621 54.1267   4
   8   9  15 688.061 92.2000   4
   8  -9  15 906.020 58.3777   4
  -8   9  15 754.121 67.4339   5
   8  -9  17 89.4392 23.4019   4
  -8  -9  17 21.0800 38.4322   6
  -8 -10 -18 1220.85 89.4412   7
  -8 -10 -18 1009.27 88.9222   6
   8 -10 -16 1907.85 162.709   9
   8  10 -16 2046.06 143.873   9
  -8 -10 -16 1807.85 103.932   7
   8 -10 -16 2187.15 155.178   6
  -8  10 -14 509.443 60.4981   4
   8  10 -14 463.846 76.6343   8
   8 -10 -14 359.543 70.5705   9
   8  10 -14 470.842 68.6236   9
  -8 -10 -14 452.606 52.7179   7
   8 -10 -14 381.693 69.0579   6
  -8  10 -14 349.270 47.2636   5
  -8  10 -12 1781.16 100.620   4
   8  10 -12 1517.02 133.252   8
  -8  10 -12 1402.28 99.1989   7
   8 -10 -12 1377.12 123.099   9
   8  10 -12 1367.51 106.071   9
   8 -10 -12 1611.96 126.408   6
  -8  10 -12 1414.93 90.4670   5
  -8 -10 -12 1347.48 89.7542   7
  -8  10 -10 6474.20 188.702   4
   8  10 -10 5667.80 261.807   8
  -8  10 -10 5414.01 196.941   7
   8 -10 -10 6993.15 265.586   6
  -8 -10 -10 5190.72 197.850   7
  -8  10  -8 1844.12 92.8841   4
   8 -10  -8 1684.48 92.7404   1
   8  10  -8 1835.98 147.671   8
  -8  10  -8 1600.42 96.0736   7
  -8  10  -8 1721.07 99.0078   5
  -8  10  -6 879.721 61.7940   4
  -8 -10  -6 1039.41 113.692   4
  -8  10  -6 787.348 63.1023   7
   8  10  -6 809.619 106.436   8
   8 -10  -6 930.850 93.8192   6
  -8  10  -6 827.991 68.1896   5
  -8  10  -4 7118.60 185.644   4
  -8  10  -4 5467.85 130.113   8
   8  10  -4 6146.50 312.542   8
  -8  10  -4 5692.99 193.147   5
   8 -10  -4 6835.17 257.015   6
   8  10  -2 5676.88 113.103   2
   8  10  -2 5419.35 295.612   8
  -8  10  -2 4946.96 132.113   8
  -8  10  -2 5102.40 183.440   5
  -8 -10   0 429.037 59.1475   4
   8 -10   0 330.252 56.2392   1
   8 -10   0 316.942 44.7212   2
  -8  10   0 332.530 40.8257   8
  -8  10   0 314.879 36.1412   7
  -8  10   0 376.982 48.1741   5
   8 -10   0 392.451 65.8942   6
   8  10   2 5295.13 193.714   4
  -8 -10   2 5791.26 199.627   4
   8  10   2 5688.99 204.264   3
  -8  10   2 5930.46 175.794   4
  -8  10   2 5972.59 201.324   2
   8 -10   2 5716.57 226.587   1
   8 -10   2 4777.18 183.985   2
  -8  10   2 5221.50 152.908   7
  -8  10   2 5311.50 189.065   5
   8 -10   2 6127.51 247.177   6
   8 -10   4 5157.79 199.808   2
  -8  10   4 6511.00 210.516   2
   8 -10   4 6222.70 243.326   1
  -8 -10   4 6115.27 193.274   4
   8  10   4 5862.27 215.991   4
  -8  10   4 6413.19 189.229   4
   8 -10   4 7052.88 266.106   6
  -8  10   4 5957.71 203.504   5
   8 -10   6 930.240 81.6362   2
  -8  10   6 1021.08 79.0897   2
   8 -10   6 986.068 94.9449   1
   8  10   6 837.433 83.6463   4
  -8 -10   6 916.101 64.6363   4
  -8  10   6 1051.64 56.2500   7
  -8  10   6 1028.21 80.4992   5
   8 -10   6 1101.03 103.790   6
  -8  10   8 1929.81 110.681   2
   8 -10   8 1772.53 114.123   2
   8 -10   8 1769.67 128.668   1
   8  10   8 1571.92 122.791   4
  -8 -10   8 1955.23 91.5651   4
  -8  10   8 1783.22 73.2757   7
   8 -10  10 5490.50 217.080   2
   8  10  10 4831.38 231.989   4
  -8 -10  10 5997.11 167.392   4
   8 -10  10 7095.43 269.803   6
  -8  10  10 6156.27 145.579   7
  -8  10  10 5749.64 204.743   5
   8 -10  12 1729.87 118.568   2
   8  10  12 1316.85 121.964   4
  -8 -10  12 1628.49 76.4279   4
   8 -10  12 1967.36 142.905   6
  -8  10  12 1780.12 62.5059   7
  -8  10  12 1500.44 99.1243   5
  -8 -10  14 469.543 39.1016   4
   8  10  14 338.552 67.1560   4
  -8  10  14 402.400 24.3519   7
  -8  10  14 411.400 53.0209   5
  -8  10  14 449.108 26.4203   7
   8 -10  16 2399.02 165.568   6
  -8 -10  18 803.370 102.456   6
   8  11 -17 117.455 49.2638   1
  -8 -11 -17 68.9607 29.1455   7
  -8 -11 -17 63.2124 45.2804   6
  -8 -11 -15 434.160 52.0826   7
   8 -11 -15 425.077 78.2557   9
   8  11 -15 548.050 73.6272   9
   8 -11 -15 568.070 82.3498   6
  -8  11 -13 1373.09 87.9074   4
   8  11 -13 1381.91 106.739   1
   8  11 -13 1235.65 123.015   8
   8 -11 -13 1072.13 111.524   9
   8  11 -13 1131.12 97.6641   9
   8 -11 -13 1283.86 115.345   6
  -8 -11 -13 970.524 76.5142   7
  -8  11 -11 1031.88 71.5790   4
   8  11 -11 879.052 105.041   8
  -8  11 -11 876.569 78.7927   7
   8 -11 -11 809.212 92.2201   9
   8  11 -11 818.321 79.3713   9
   8 -11 -11 986.616 100.838   6
  -8  11 -11 857.436 72.8228   5
  -8 -11 -11 743.951 70.4178   7
  -8  11  -9 1589.23 84.6475   4
   8  11  -9 1297.33 132.902   8
  -8  11  -9 1342.42 91.4675   7
   8 -11  -9 1692.39 128.874   6
  -8  11  -9 1426.04 93.6781   5
  -8 -11  -9 1181.81 91.5374   7
  -8  11  -7 1738.11 87.6160   4
   8  11  -7 1704.72 156.167   8
  -8  11  -7 1538.67 97.1162   5
   8 -11  -7 1866.08 134.495   6
  -8  11  -5 1601.51 81.6434   4
  -8  11  -5 1375.73 60.5262   8
   8  11  -5 1552.67 157.954   8
  -8  11  -5 1470.63 94.6202   5
  -8  11  -3 3129.36 116.908   4
  -8 -11  -3 3387.56 186.839   4
   8 -11  -3 2909.32 151.543   1
   8  11  -3 2687.03 211.558   8
  -8  11  -3 2650.26 113.346   7
  -8  11  -3 2647.26 95.7249   8
  -8  11  -3 2814.65 133.081   5
  -8  11  -1 2568.25 106.063   4
  -8 -11  -1 2711.91 150.370   4
  -8  11  -1 2245.69 100.460   7
  -8  11  -1 2365.80 107.860   8
  -8  11  -1 2267.47 118.956   5
  -8 -11   1 2838.08 142.162   4
  -8  11   1 2818.61 137.950   2
   8 -11   1 2235.59 121.530   2
  -8  11   1 2464.24 99.9136   7
  -8  11   1 2640.20 129.608   5
   8  11   3 2811.93 139.627   4
  -8 -11   3 2988.26 137.785   4
  -8  11   3 3144.72 123.447   4
  -8  11   3 3034.90 139.665   2
   8 -11   3 2876.31 161.203   1
   8 -11   3 2458.61 130.798   2
  -8  11   3 2519.82 97.5835   7
  -8  11   3 2851.40 137.615   5
   8  11   5 1473.44 107.181   4
  -8 -11   5 1596.74 91.6931   4
  -8  11   5 1525.67 88.7233   4
   8 -11   5 1466.90 101.864   2
  -8  11   5 1626.81 102.307   2
   8 -11   5 1472.31 115.324   1
  -8  11   5 1434.74 67.1008   7
  -8  11   5 1543.16 99.7724   5
  -8 -11   7 1798.83 89.7138   4
   8  11   7 1749.47 124.977   4
   8 -11   7 1727.17 111.963   2
  -8  11   7 1667.23 68.3941   7
  -8  11   7 1730.03 107.863   5
   8 -11   7 1901.18 136.881   6
   8  11   9 1285.74 115.556   4
  -8 -11   9 1542.05 77.8396   4
   8 -11   9 1481.38 109.097   2
   8  11   9 1233.43 128.963   3
  -8  11   9 1597.54 60.0396   7
  -8  11   9 1575.70 104.437   5
   8 -11   9 1882.39 136.638   6
   8  11  11 618.422 83.8645   4
  -8 -11  11 808.160 53.1563   4
   8 -11  11 901.872 85.7233   2
   8  11  11 590.534 97.8008   3
  -8  11  11 803.904 32.8777   7
   8 -11  11 1100.37 107.491   6
  -8  11  11 793.338 75.0804   5
   8  11  13 907.952 104.326   4
  -8 -11  13 1135.24 59.2164   4
  -8  11  13 1032.01 85.2400   5
   8  12 -18 255.958 70.9789   1
   8 -12 -16 521.373 90.5284   9
   8  12 -16 556.983 76.5718   9
  -8 -12 -16 463.833 52.5985   7
  -8  12 -14 69.5712 30.7869   4
   8  12 -14 38.1583 36.6395   1
   8 -12 -14 59.1453 40.0714   9
   8  12 -14 83.1377 38.5818   9
  -8 -12 -14 70.1680 25.6174   7
  -8  12 -12 31.3551 22.7445   4
   8  12 -12 45.0522 34.6388   1
   8  12 -12 21.8311 36.4627   8
   8 -12 -12 21.2096 32.1418   9
   8  12 -12 30.6384 27.0889   9
  -8 -12 -12 21.7585 21.9386   7
  -8  12 -10 1019.19 66.7985   4
   8  12 -10 933.294 113.134   8
   8 -12 -10 860.376 91.8890   9
   8  12 -10 912.620 80.9671   9
  -8 -12 -10 771.513 73.9521   7
  -8  12  -8 22.2764 18.5630   4
   8  12  -8 9.47821 24.9159   1
   8  12  -8 3.90751 35.6005   8
  -8  12  -8 10.8826 21.2514   5
  -8  12  -6 195.675 30.7692   4
   8 -12  -6 203.018 41.0189   1
  -8  12  -6 171.885 24.6723   8
   8  12  -6 169.811 61.5486   8
  -8  12  -6 153.728 32.6845   7
   8 -12  -6 214.011 55.4708   6
  -8  12  -6 178.571 37.6457   5
  -8  12  -4 495.238 46.3658   4
  -8 -12  -4 565.211 86.8085   4
   8 -12  -4 709.943 81.4710   1
  -8  12  -4 467.036 41.0259   8
  -8  12  -4 463.291 49.7205   7
   8  12  -4 543.625 102.547   8
  -8  12  -4 469.275 57.6286   5
  -8  12  -2 55.8420 20.7376   4
  -8 -12  -2 84.2043 40.2786   4
   8 -12  -2 74.2696 35.9412   1
   8  12  -2 49.9003 46.5885   8
  -8  12  -2 52.4958 20.8253   7
  -8  12  -2 54.6055 21.8671   8
  -8  12  -2 57.8439 27.1950   5
  -8 -12   0 580.892 71.2032   4
   8 -12   0 576.692 79.0114   5
  -8  12   0 590.415 52.2591   4
   8  12   0 561.557 56.4291   4
  -8  12   0 525.476 59.5850   8
  -8  12   0 484.387 45.1264   7
  -8  12   0 544.798 60.9091   5
   8 -12   2 81.9819 34.7054   5
  -8 -12   2 44.9967 28.1064   4
   8 -12   2 70.8861 34.4339   1
   8 -12   2 73.9004 29.1555   2
   8  12   2 67.6937 29.8821   3
  -8  12   2 78.7187 29.8227   2
  -8  12   2 70.5315 19.9818   7
  -8  12   2 61.9737 28.4554   5
  -8 -12   4 452.039 53.6684   4
   8 -12   4 411.115 63.9339   1
   8 -12   4 367.794 52.8708   2
  -8  12   4 475.835 39.2294   7
  -8  12   4 388.141 54.6260   5
   8  12   6 223.137 48.2236   4
  -8 -12   6 245.831 37.7820   4
   8 -12   6 182.650 41.9197   2
   8  12   6 214.423 58.5146   3
  -8  12   6 240.826 26.5828   7
  -8  12   6 206.644 42.7228   5
  -8 -12   8 60.6585 23.5404   4
   8  12   8 16.6446 29.7453   4
   8 -12   8 22.8141 24.8666   2
   8  12   8 33.7322 37.8500   3
  -8  12   8 27.3389 12.1712   7
   8 -12  10 997.314 89.0620   2
   8  12  10 778.682 107.628   3
  -8 -12  10 1051.74 61.9103   4
   8  12  10 884.301 100.970   4
  -8  12  10 969.974 86.2958   5
   8  12  12 23.1287 40.9569   3
  -8 -12  12 72.0040 19.2493   4
   8  12  12 36.8237 34.0820   4
  -8  12  12 37.6718 27.7046   5
   8  12  14 40.1865 46.7643   3
   8  13 -17 13.6966 39.5212   1
   8  13 -15 231.949 69.7212   1
  -8 -13 -15 294.794 43.5751   7
   8 -13 -15 340.593 73.2688   9
   8  13 -15 310.628 58.5441   9
  -8  13 -13 986.868 69.8480   4
   8 -13 -13 808.978 97.1396   9
   8  13 -13 884.003 87.1456   9
  -8 -13 -13 726.235 66.0324   7
  -8  13 -11 197.616 32.9674   4
   8  13 -11 285.423 61.1314   1
   8  13 -11 155.848 57.3146   8
   8 -13 -11 141.087 45.9766   9
   8  13 -11 168.205 41.9840   9
  -8 -13 -11 124.370 36.2663   7
  -8  13  -9 829.543 58.9129   4
   8  13  -9 835.828 109.720   8
   8 -13  -9 736.241 82.7989   9
   8  13  -9 816.477 73.9812   9
  -8  13  -7 1143.69 68.1753   4
  -8  13  -7 986.396 61.3137   8
  -8  13  -7 1052.24 81.8054   7
   8  13  -7 1200.09 141.936   8
  -8  13  -7 1103.98 87.2561   5
  -8  13  -5 523.710 47.0292   4
   8 -13  -5 561.770 65.2354   1
  -8  13  -5 490.926 44.8272   8
  -8  13  -5 482.734 53.4660   7
   8  13  -5 463.542 97.9303   8
  -8  13  -5 472.719 59.2199   5
  -8  13  -3 1966.77 91.1881   4
   8  13  -3 1668.62 179.336   8
  -8  13  -3 1625.02 89.2819   8
  -8  13  -3 1637.37 92.0096   7
  -8  13  -3 1672.49 110.418   5
  -8 -13  -1 903.777 97.5333   4
  -8  13  -1 849.125 61.3725   4
   8  13  -1 716.661 59.8803   4
   8 -13  -1 925.034 95.4295   1
   8  13  -1 628.554 26.6312   2
  -8  13  -1 778.991 59.6746   7
  -8  13  -1 707.115 70.8512   8
  -8  13  -1 719.856 72.8785   5
   8  13   1 919.736 74.1323   4
  -8 -13   1 832.498 84.7832   4
   8  13   1 866.242 71.7140   3
  -8  13   1 827.568 62.7993   4
  -8  13   1 761.583 55.7074   7
  -8  13   1 834.450 78.6063   5
   8  13   3 1861.23 114.590   4
  -8 -13   3 1965.18 117.012   4
  -8  13   3 1924.59 98.2246   4
   8 -13   3 1726.79 112.305   2
  -8  13   3 1831.25 81.9248   7
  -8  13   3 1834.69 118.077   5
   8  13   5 644.496 86.8277   3
   8 -13   5 519.858 63.8835   2
  -8  13   5 631.857 43.0328   7
  -8  13   5 590.303 70.3246   5
  -8 -13   7 1030.19 70.7133   4
   8  13   7 795.213 103.519   3
   8 -13   7 1034.85 89.6990   2
   8  13   9 884.160 99.3415   4
  -8 -13   9 846.236 57.9092   4
   8  13   9 668.261 102.026   3
  -8 -13  11 155.257 24.8925   4
   8  13  11 175.307 53.3668   4
   8  13  11 128.966 59.3183   3
   8  13  13 559.841 104.807   3
   8  14 -16 419.539 65.2911   9
   8  14 -14 153.296 45.2438   9
  -8 -14 -14 119.341 32.1343   7
   8  14 -12 225.062 55.0297   1
   8 -14 -12 155.738 47.7934   9
   8  14 -12 156.729 42.5537   9
  -8 -14 -12 145.864 34.0337   7
  -8  14 -10 991.580 62.8426   4
   8 -14 -10 879.685 91.2523   9
   8  14 -10 1031.11 84.7694   9
  -8  14  -8 210.332 32.6166   4
   8  14  -8 168.059 47.2792   1
   8  14  -8 255.671 72.4838   8
   8 -14  -8 227.558 49.0225   9
   8  14  -8 162.230 37.5870   9
  -8  14  -6 79.3605 23.6214   4
   8  14  -6 63.0457 30.5207   1
   8  14  -6 54.9320 54.7780   8
  -8  14  -6 56.8436 31.3597   5
  -8  14  -4 796.331 57.9589   4
  -8  14  -4 693.914 60.9106   8
   8  14  -4 804.061 130.646   8
  -8  14  -4 755.556 76.6409   5
   8  14  -2 495.179 49.2036   4
  -8  14  -2 499.505 47.1368   4
   8  14  -2 424.369 99.7080   8
  -8  14  -2 395.660 53.8478   8
  -8  14  -2 482.499 63.2483   5
   8  14   0 86.5481 28.2990   4
  -8  14   0 85.0510 25.4923   4
   8 -14   0 105.633 46.6946   1
  -8  14   0 69.4501 34.7518   8
  -8  14   0 80.3388 24.4377   7
  -8  14   0 80.5967 34.8254   5
   8  14   2 462.648 57.3339   4
   8  14   2 421.539 58.9469   3
  -8  14   2 424.772 48.2500   4
  -8  14   2 413.452 59.9407   5
   8 -14   4 723.525 73.9504   2
   8  14   4 826.207 80.2111   4
  -8  14   4 877.456 69.1509   4
  -8 -14   4 794.793 75.2087   4
  -8  14   4 777.490 82.4390   5
   8 -14   6 51.0822 29.0981   2
   8  14   6 52.4326 38.7720   3
  -8 -14   6 44.2799 26.5598   4
   8  14   6 60.0373 34.4673   4
  -8  14   6 48.7520 31.4561   5
  -8 -14   8 116.626 28.2669   4
   8  14   8 142.509 57.2596   3
  -8 -14  10 895.498 54.8499   4
   8 -14  10 982.161 90.1643   2
   8  14  12 111.013 60.7116   3
   8  14  12 153.596 53.0341   9
   8 -14  12 167.745 36.6891   9
   8  15 -15 276.009 53.6662   9
   8 -15 -13 411.606 70.2309   9
   8  15 -13 382.724 59.5399   9
   8 -15 -11 674.455 81.3830   9
   8  15 -11 704.786 73.0368   9
  -8 -15 -11 559.656 60.3160   7
  -8  15  -9 1625.02 76.3065   4
   8 -15  -9 1530.13 112.713   9
   8  15  -9 1537.06 98.2372   9
  -8  15  -9 1542.37 84.9968   8
  -8  15  -7 131.273 26.2217   4
   8 -15  -7 114.931 37.0911   9
   8  15  -7 105.921 30.5690   9
   8  15  -7 130.313 62.7069   8
   8  15  -7 169.089 49.8869   1
  -8  15  -5 652.650 51.6851   4
   8  15  -5 791.534 129.960   8
  -8  15  -3 3735.48 128.738   4
   8  15  -3 3531.66 120.929   4
   8  15  -3 3246.14 258.698   8
   8 -15  -3 3083.92 162.328   1
  -8  15  -1 202.877 33.1808   4
   8  15  -1 226.194 35.4037   4
   8  15  -1 156.014 12.2454   2
   8  15  -1 223.386 84.9631   8
   8  15   1 220.838 40.8796   4
   8  15   1 241.360 41.0885   3
  -8  15   1 187.508 34.2031   4
  -8  15   1 164.096 41.9848   5
   8  15   3 3518.68 161.656   4
  -8  15   3 3588.33 141.947   4
   8  15   5 691.193 77.8585   4
   8  15   5 671.651 90.2265   3
   8  15   7 117.561 42.9763   4
   8  15   7 74.8334 50.1469   3
   8  15   9 1603.69 132.866   4
   8  15   9 1233.35 139.447   3
   8 -15   9 1526.80 109.208   2
   8  15  11 318.209 82.8725   3
   8 -15  11 625.471 57.4988   9
   8 -16 -10 1168.27 98.3703   9
   8  16 -10 1277.37 91.4841   9
  -8  16  -8 701.913 50.0614   4
  -8  16  -8 799.815 64.4909   8
   8 -16  -8 869.035 79.5526   9
   8  16  -8 761.319 67.1275   9
  -8  16  -6 309.700 36.1221   4
   8 -16  -6 330.766 48.9570   9
  -8  16  -4 1871.47 88.7950   4
   8 -16  -4 1903.75 103.800   9
   8  16  -2 1310.54 75.3551   4
  -8  16  -2 1330.88 77.0546   4
   8  16  -2 1207.16 166.423   8
   8  16   0 158.555 16.5082   2
   8  16   0 148.356 34.3562   4
  -8  16   0 163.757 33.4807   4
   8  16   2 1256.72 91.2064   4
   8  16   4 1808.75 141.129   3
   8  16   4 1829.12 120.730   4
   8  16   6 279.561 71.0559   3
   8  16   6 448.901 66.4345   4
   8  16   8 672.691 107.838   3
   8  16   8 691.539 87.4555   4
   8  16  10 757.537 116.719   3
  -8  17  -9 934.949 71.4688   8
  -8 -17  -9 787.858 75.3814   7
  -8  17  -7 1336.50 87.7020   8
  -8  17  -5 1163.91 66.9157   4
  -8  17  -5 1254.43 90.0591   8
  -8  17  -3 1771.26 86.4148   4
   8  17  -3 1837.64 83.4718   4
  -8  17  -3 1696.51 115.155   8
   8 -17  -3 1843.13 89.9389   9
   8  17  -1 1329.94 80.2751   4
  -8  17  -1 1324.59 76.4112   4
  -8  17  -1 1172.42 109.391   8
   8  17   1 1340.34 88.9687   4
  -8  17   1 1192.22 116.056   8
   8  17   1 1328.95 53.5105   2
   8  17   3 1927.36 117.233   4
   8  17   5 1175.28 98.9674   4
   8  17   5 1174.78 119.527   3
   8  17   7 1758.51 131.074   4
   8  17   7 1376.94 142.545   3
   8  17   9 801.716 119.024   3
  -8  18  -6 440.282 55.1122   8
  -8  18  -4 926.156 83.1586   8
   8  18  -2 898.080 60.2003   4
  -8  18  -2 864.953 60.6554   4
  -8  18  -2 748.026 85.6601   8
   8  18   0 530.406 53.6390   4
  -8  18   0 383.600 73.1387   8
   8  18   2 919.578 76.5234   4
   8  18   4 998.451 87.9369   4
   8  18   4 1090.57 109.125   3
   8  18   6 489.329 86.6404   3
   8  18   8 231.469 72.3225   3
  -8  19  -1 93.1962 46.0546   8
   8  19   1 161.917 35.7007   4
  -8  19   1 130.516 57.2159   8
   8  19   3 19.7130 26.3469   4
  -9   0 -17 517.882 62.0535   7
   9   0 -17 555.950 88.3722   9
  -9   0 -15 998.533 80.3728   7
   9   0 -15 1164.50 113.849   9
  -9   0 -15 940.117 60.8544   5
  -9   0 -13 3185.01 186.186   4
   9   0 -13 3137.42 84.7215   1
  -9   0 -13 2206.88 118.736   7
  -9   0 -13 2073.21 101.079   5
  -9   0 -11 973.495 96.7276   4
  -9   0 -11 636.687 61.5212   7
  -9   0  -9 1266.24 100.219   4
  -9   0  -9 847.898 69.0567   7
  -9   0  -7 4281.81 177.407   4
  -9   0  -7 5054.91 235.129   3
  -9   0  -5 2204.69 118.358   4
  -9   0  -5 2458.91 149.399   3
  -9   0  -3 154.504 33.2140   4
  -9   0  -3 139.265 37.3904   3
   9   0  -3 109.063 21.9087   2
  -9   0  -1 3235.96 149.783   3
  -9   0  -1 3286.03 132.027   4
  -9   0   1 2889.96 125.110   4
   9   0   1 3136.73 71.3701   8
  -9   0   3 119.114 26.2902   4
   9   0   3 154.490 19.6562   8
  -9   0   5 2215.45 100.795   4
  -9   0   5 1957.95 117.138   6
  -9   0   7 3924.70 139.118   4
   9   0   7 3499.81 154.529   4
  -9   0   7 3580.07 126.034   2
  -9   0   7 3584.11 177.546   8
   9   0   9 951.619 80.7414   4
  -9   0   9 975.280 68.2599   4
  -9   0   9 956.744 96.3369   8
  -9   0   9 933.979 61.1309   2
   9   0  11 761.839 74.9561   4
  -9   0  11 841.136 64.8884   4
  -9   0  11 834.701 58.7142   2
  -9   0  11 733.595 89.2140   8
   9   0  11 807.325 45.8756   8
   9   0  13 2430.48 138.207   4
  -9   0  13 2409.58 102.959   2
   9   0  13 2374.59 90.9965   8
  -9   0  13 2693.18 168.404   8
  -9   0  13 2099.89 114.697   5
  -9   0  15 1093.75 77.3551   4
  -9   0  15 1127.18 71.2544   2
   9   0  15 1290.60 71.3066   8
  -9   0  15 1218.33 117.617   8
  -9   0  15 934.175 73.6705   5
   9   0  17 535.329 71.0520   4
  -9   0  17 584.793 53.6301   2
   9   0  17 541.492 51.9947   8
  -9   0  17 435.039 47.6964   5
  -9   0  19 595.186 55.7093   2
   9   0  19 629.716 79.3733   4
  -9   0  19 509.610 47.8553   5
  -9   1 -16 1604.15 105.080   7
  -9  -1 -16 1420.21 97.8844   7
   9  -1 -16 1622.94 139.787   9
   9   1 -16 1713.79 142.951   9
  -9   1 -16 1483.37 76.2829   5
   9   1 -14 553.553 37.3847   1
  -9  -1 -14 394.944 50.6694   7
  -9   1 -14 379.632 50.7798   7
  -9   1 -14 372.638 40.0192   5
  -9  -1 -14 432.129 44.3468   5
  -9   1 -12 1064.96 101.647   4
  -9  -1 -12 1127.99 112.521   4
  -9   1 -12 793.802 68.5198   7
  -9  -1 -12 768.466 68.2087   7
  -9   1 -12 813.915 59.8610   5
  -9  -1 -12 707.590 58.5813   5
  -9   1 -10 2986.78 155.682   4
  -9  -1 -10 2948.92 165.872   4
  -9   1 -10 2025.11 108.333   7
  -9  -1 -10 1930.57 107.214   7
  -9   1  -8 2129.86 156.355   3
  -9  -1  -8 2125.25 127.257   4
  -9   1  -8 1970.35 114.948   4
  -9   1  -8 1401.79 84.4259   5
  -9  -1  -8 1517.26 95.3657   7
  -9   1  -6 4109.50 165.924   4
  -9  -1  -6 4057.90 170.695   4
  -9   1  -6 4107.49 202.630   3
  -9  -1  -6 4105.58 203.782   3
  -9   1  -4 1989.12 105.060   4
  -9  -1  -4 1760.55 105.411   4
   9   1  -4 1864.50 77.0716   8
  -9   1  -4 2023.06 129.319   3
  -9  -1  -4 2013.13 128.490   3
  -9   1  -2 1899.09 99.3371   4
  -9  -1  -2 1924.65 105.130   4
  -9   1  -2 1895.80 117.180   3
   9   1  -2 2007.90 75.2184   8
   9   1  -2 1760.11 80.3286   2
  -9  -1  -2 2035.75 119.796   3
  -9   1   0 7456.31 213.328   4
  -9  -1   0 7236.72 214.075   4
  -9  -1   0 7692.92 238.671   3
   9   1   0 8015.66 181.431   8
   9   1   0 7245.21 204.503   2
  -9   1   2 1634.68 88.1352   4
  -9  -1   2 1558.04 89.2156   4
   9   1   2 1561.35 82.9268   8
  -9   1   4 1936.70 95.3123   4
  -9  -1   4 2035.16 97.1446   4
  -9  -1   4 1812.86 117.043   6
  -9   1   4 1770.23 105.543   6
  -9   1   6 3616.39 133.740   4
   9  -1   6 3019.42 137.786   4
  -9  -1   6 3437.34 130.118   4
   9  -1   6 3660.58 78.9079   8
  -9   1   6 3159.32 154.042   8
  -9  -1   6 3105.94 160.281   6
  -9   1   6 3072.07 144.076   6
   9   1   8 1481.12 102.096   4
  -9   1   8 1655.62 89.9201   4
  -9  -1   8 1786.56 91.3943   4
   9  -1   8 1731.52 105.321   4
  -9   1   8 1774.05 87.1000   2
  -9  -1   8 1669.52 79.1758   2
   9  -1   8 1846.07 60.1481   8
  -9  -1   8 1610.97 126.238   8
  -9   1   8 1719.61 118.067   8
  -9  -1   8 1516.15 107.065   6
   9   1  10 2358.70 134.450   4
  -9   1  10 2911.24 122.775   4
  -9  -1  10 2841.14 119.388   4
   9  -1  10 2491.15 131.470   4
  -9   1  10 2667.82 110.620   2
  -9  -1  10 2713.06 102.518   2
   9  -1  10 2675.31 86.7870   8
  -9   1  10 2807.54 153.565   8
  -9  -1  10 2798.45 175.872   8
   9  -1  12 838.972 78.7212   4
   9   1  12 803.649 81.1982   4
  -9   1  12 783.501 63.9090   4
  -9   1  12 765.443 58.3202   2
  -9  -1  12 776.755 54.4878   2
   9  -1  12 822.737 51.0270   8
  -9   1  12 867.230 86.7278   8
  -9  -1  12 867.579 101.892   8
  -9   1  12 667.976 63.9248   5
  -9  -1  12 679.348 68.3133   6
   9   1  14 394.010 59.6039   4
  -9  -1  14 447.726 49.6137   4
  -9   1  14 366.897 43.4671   2
  -9  -1  14 390.656 40.8026   2
   9  -1  14 448.112 43.1394   8
  -9   1  14 415.319 66.6145   8
  -9  -1  14 385.917 74.6798   8
  -9   1  14 391.378 49.0475   5
  -9   1  16 1821.74 96.1095   2
  -9  -1  16 1940.11 89.2351   2
   9  -1  16 2029.84 98.4972   8
  -9   1  16 1952.22 141.507   8
   9   1  16 1874.59 88.4186   8
  -9  -1  16 1539.40 96.2557   5
  -9   1  16 1605.68 91.8027   5
   9  -1  18 176.406 45.2633   4
   9   1  18 95.8673 39.1217   4
  -9  -1  18 168.532 31.2068   2
  -9   1  18 166.573 33.6995   2
   9   1  18 200.452 33.9662   8
   9  -1  18 183.523 38.1603   8
  -9  -1  18 149.144 30.5096   5
  -9   1  18 169.104 30.5604   5
  -9   2 -17 59.3307 29.4642   7
   9  -2 -17 80.9297 48.3546   9
   9   2 -17 50.9467 39.0171   9
  -9   2 -17 39.2643 18.5304   5
  -9   2 -15 108.375 47.3842   4
  -9  -2 -15 35.5139 18.6361   5
   9   2 -15 40.3825 18.4482   1
  -9   2 -15 22.1625 23.0833   7
   9  -2 -15 49.0892 38.3057   9
   9   2 -15 36.3117 31.4975   9
  -9   2 -15 56.2277 20.0279   5
  -9  -2 -15 45.5440 25.9669   7
  -9   2 -13 984.010 77.7166   7
  -9  -2 -13 980.244 77.2181   7
  -9   2 -13 964.097 65.5113   5
   9  -2 -11 142.498 34.3543   1
  -9   2 -11 128.582 40.9303   4
  -9  -2 -11 179.569 52.6833   4
  -9  -2 -11 97.4521 26.0877   6
  -9   2 -11 79.8432 26.4409   7
  -9  -2 -11 97.2704 29.4449   7
  -9   2  -9 526.858 85.7483   3
  -9   2  -9 570.007 65.3833   4
  -9  -2  -9 556.471 74.4283   4
  -9  -2  -9 415.444 51.7437   6
  -9   2  -9 380.120 44.3213   5
  -9   2  -9 372.615 47.1386   7
  -9  -2  -9 428.114 51.9883   7
  -9   2  -7 1401.79 120.181   3
  -9  -2  -7 1406.43 105.459   4
  -9   2  -7 1538.91 97.2053   4
  -9   2  -7 1066.36 73.5101   5
  -9  -2  -7 1154.08 88.1722   6
  -9  -2  -7 1117.57 82.7530   7
  -9  -2  -5 164.277 37.9884   4
  -9   2  -5 143.192 31.6215   4
  -9   2  -5 154.470 41.9398   3
  -9  -2  -5 155.668 44.1246   3
   9   2  -5 157.874 26.7712   8
  -9   2  -5 123.164 29.1400   5
  -9   2  -3 2274.41 111.971   4
  -9  -2  -3 2297.33 119.684   4
  -9   2  -3 2288.71 135.417   3
   9   2  -3 2141.77 93.9675   8
  -9  -2  -3 2450.50 136.529   3
  -9   2  -1 189.507 32.3921   4
  -9  -2  -1 150.811 31.9829   4
   9   2  -1 165.118 29.5314   8
   9   2  -1 187.722 28.0253   2
  -9   2   1 93.1894 24.7315   4
  -9  -2   1 94.8561 25.6932   4
   9   2   1 77.4294 27.3169   8
   9   2   1 49.7925 19.9776   2
  -9  -2   3 2068.50 102.374   4
  -9   2   3 2164.83 101.295   4
  -9  -2   5 250.850 35.0325   4
  -9   2   5 183.119 35.3010   5
   9  -2   5 235.698 38.1146   4
  -9   2   5 216.959 34.2686   4
   9  -2   5 154.751 35.6725   2
  -9   2   5 224.571 37.8618   8
  -9  -2   5 248.930 48.2425   6
  -9   2   7 1162.85 74.5560   4
   9  -2   7 1071.49 79.6652   4
  -9  -2   7 1220.89 74.4829   4
  -9   2   7 1067.33 85.5197   8
  -9  -2   7 983.048 90.5795   6
  -9   2   7 1013.86 77.8676   5
   9   2   9 384.791 55.9396   4
  -9   2   9 512.508 51.2582   4
  -9  -2   9 517.182 49.2980   4
   9  -2   9 517.639 56.9939   4
  -9   2   9 493.023 48.0091   2
  -9  -2   9 481.224 77.1784   8
   9  -2   9 630.370 40.9584   8
  -9   2   9 564.841 64.3147   8
   9  -2  11 142.272 35.7255   4
   9   2  11 118.154 36.4146   4
  -9   2  11 116.949 30.0167   5
  -9   2  11 99.7249 27.8574   4
  -9   2  11 121.555 27.1170   2
  -9  -2  11 144.890 23.8224   2
   9  -2  11 124.449 24.3844   8
  -9  -2  11 107.597 48.0650   8
  -9   2  11 144.443 37.8214   8
  -9  -2  11 130.176 38.0669   6
   9   2  13 1059.05 97.0014   4
  -9   2  13 1213.66 81.9734   4
  -9  -2  13 1269.42 78.5487   4
  -9   2  13 1157.68 75.6309   2
  -9  -2  13 1143.70 63.3542   2
   9  -2  13 1150.68 70.1975   8
  -9   2  13 1250.17 99.1452   8
  -9  -2  13 1247.65 131.776   8
  -9  -2  13 1054.15 86.4794   6
  -9   2  13 929.109 73.4884   5
   9  -2  15 50.1485 29.0677   4
   9   2  15 80.3352 36.3981   4
  -9  -2  15 72.8412 25.4302   4
  -9  -2  15 61.3049 19.4027   2
  -9   2  15 51.0535 23.1802   2
  -9  -2  15 74.2023 48.1950   8
   9  -2  15 64.9773 26.0818   8
  -9   2  15 93.5213 37.0828   8
  -9   2  15 46.8169 21.1459   5
   9  -2  17 74.1871 32.2761   4
  -9  -2  17 43.5438 24.0015   5
  -9   2  17 42.8122 22.6915   2
  -9  -2  17 65.8065 21.7156   2
   9   2  17 60.8382 20.9450   8
   9  -2  17 35.8588 27.0434   8
  -9   2  17 43.5261 21.2167   5
   9  -2  19 415.839 59.8294   4
   9  -2  19 416.769 58.0193   8
  -9   2  19 332.307 37.9009   5
  -9  -2  19 324.823 40.9103   5
  -9  -3 -18 146.074 38.7522   7
  -9   3 -18 150.530 26.4945   5
   9  -3 -16 614.583 90.8055   9
   9   3 -16 552.573 81.9673   9
  -9   3 -16 625.403 67.6652   7
  -9   3 -16 560.921 48.4940   5
  -9  -3 -16 567.553 50.1758   5
  -9   3 -14 5.72980 36.1804   4
   9   3 -14 10.5265 18.1737   1
  -9   3 -14 1.77270 19.8054   7
  -9   3 -14 14.8907 15.5741   5
  -9  -3 -14 8.50626 19.4772   7
   9  -3 -12 58.1431 14.6900   1
  -9  -3 -12 17.5693 35.3503   4
  -9  -3 -12 40.8259 22.5553   6
  -9   3 -12 19.0869 20.8223   7
  -9  -3 -12 36.8639 22.3353   7
  -9   3 -12 29.2723 17.1082   5
  -9   3 -10 1573.49 106.739   4
  -9  -3 -10 1504.78 127.383   4
   9  -3 -10 1756.75 99.8588   1
  -9   3 -10 1565.84 144.983   3
  -9   3 -10 1053.69 77.3938   7
  -9  -3 -10 1102.82 83.0680   7
  -9  -3  -8 229.737 49.8538   4
  -9   3  -8 246.735 42.9635   4
  -9   3  -8 285.235 63.0136   3
   9   3  -8 253.340 38.4638   8
  -9  -3  -8 210.005 41.8708   6
  -9   3  -8 182.303 30.1358   5
  -9  -3  -8 216.928 39.4386   7
  -9  -3  -6 737.697 75.5900   4
  -9   3  -6 803.703 68.4128   4
  -9   3  -6 774.516 88.1980   3
   9   3  -6 712.401 61.2616   8
  -9   3  -6 638.514 56.7612   5
  -9  -3  -6 618.597 71.2090   6
  -9   3  -4 641.097 59.1837   4
  -9  -3  -4 531.843 61.7639   4
  -9   3  -4 540.982 68.3704   3
   9   3  -4 599.289 37.9142   2
   9   3  -4 507.281 52.1577   8
  -9  -3  -4 481.775 65.2873   6
  -9   3  -4 440.098 48.4801   5
  -9  -3  -2 608.341 61.5160   4
  -9   3  -2 652.143 57.7341   4
  -9   3  -2 513.037 53.7542   7
  -9   3   0 1233.65 76.4382   4
  -9  -3   0 1138.75 79.5145   4
   9   3   0 949.162 84.4449   8
   9   3   0 1141.64 69.0350   2
  -9  -3   2 606.893 54.8438   3
  -9  -3   2 567.113 53.2515   4
  -9   3   2 607.226 52.9669   4
  -9  -3   4 550.817 51.5091   4
   9  -3   4 440.814 48.4645   4
  -9  -3   4 526.557 47.2100   3
  -9   3   4 539.314 50.6821   4
   9  -3   4 340.941 49.0517   2
  -9   3   4 499.980 49.7479   2
  -9   3   4 434.835 44.7566   8
  -9   3   4 432.492 50.7258   5
  -9  -3   4 384.746 64.0583   6
  -9  -3   6 834.171 61.7663   4
  -9   3   6 797.691 61.5261   4
   9  -3   6 838.294 67.1616   4
  -9   3   6 837.248 65.6373   8
  -9  -3   6 673.722 81.8186   6
  -9   3   6 728.201 65.3641   5
  -9   3   8 219.936 35.4385   4
   9  -3   8 259.300 40.8489   4
  -9   3   8 207.396 36.3262   8
   9  -3   8 236.613 31.0684   8
  -9  -3   8 213.364 48.0478   6
  -9   3   8 171.416 35.0767   5
   9   3  10 1060.06 93.4989   4
  -9   3  10 1162.44 78.2117   4
   9  -3  10 1301.72 87.7076   4
  -9   3  10 1296.10 80.1086   2
  -9   3  10 1186.44 83.9742   8
   9  -3  10 1441.83 76.7156   8
   9   3  12 50.2439 30.4299   4
  -9   3  12 85.1837 27.8741   4
  -9  -3  12 121.556 28.2856   4
  -9   3  12 80.8843 24.8636   2
  -9  -3  12 76.8243 17.7237   2
  -9  -3  12 106.165 49.9973   8
  -9   3  12 112.744 32.7364   8
   9  -3  12 121.522 27.9870   8
  -9   3  12 73.2020 24.7485   5
  -9  -3  12 66.9217 30.7434   6
   9  -3  14 12.9793 24.7910   4
   9   3  14-7.76336 32.0640   4
  -9  -3  14 6.72140 19.3094   4
  -9   3  14 15.2538 20.9039   2
  -9  -3  14 17.2866 13.5394   2
  -9  -3  14 47.2386 45.5489   8
  -9   3  14 10.4721 23.4327   8
   9  -3  14 9.16161 19.1312   8
  -9   3  14 15.2166 18.8150   5
  -9  -3  14 2.11525 22.9689   6
   9  -3  16 640.979 68.8168   4
   9   3  16 500.554 73.3192   4
  -9  -3  16 639.055 57.6591   4
  -9   3  16 585.622 58.5429   2
  -9  -3  16 658.357 46.8894   2
  -9   3  16 644.504 73.2409   8
   9  -3  16 665.910 65.3672   8
  -9   3  16 543.773 54.4101   5
  -9  -3  16 479.102 57.9823   6
  -9  -3  18 104.337 30.2913   5
  -9  -3  18 163.484 26.4080   2
   9  -3  18 167.276 40.6683   8
  -9   3  18 151.038 29.0555   5
   9  -3  20 384.519 57.2599   4
  -9  -4 -19 690.366 74.0784   7
  -9   4 -19 635.198 50.6437   5
  -9  -4 -17 77.9869 22.1893   5
   9   4 -17 90.7365 33.3977   1
  -9  -4 -17 38.6338 26.6774   7
  -9   4 -17 69.5450 21.5895   5
  -9   4 -15 12.1870 39.3934   4
   9   4 -15 36.1935 22.9621   1
  -9   4 -15 28.4353 25.5078   7
   9  -4 -15 6.87321 31.8137   9
   9   4 -15 20.6630 30.6661   9
  -9  -4 -15 24.1375 20.1917   6
  -9   4 -15 10.4525 16.1268   5
  -9   4 -13 1681.85 121.296   4
   9   4 -13 1833.06 85.5563   1
  -9   4 -13 1279.83 89.7510   7
  -9  -4 -13 1313.58 90.4059   6
  -9   4 -13 1231.10 74.4574   5
  -9  -4 -13 1152.27 86.1218   7
   9  -4 -11 135.807 24.4020   1
  -9   4 -11 126.406 54.9708   3
  -9  -4 -11 132.816 49.6763   4
  -9  -4 -11 107.413 33.0636   6
  -9   4 -11 100.065 28.1738   7
  -9  -4 -11 130.840 31.4379   7
  -9  -4  -9 519.739 78.0447   4
  -9   4  -9 479.414 57.3469   4
  -9   4  -9 585.776 85.7334   3
  -9   4  -9 407.474 48.9150   7
  -9   4  -9 431.623 45.4396   5
  -9  -4  -9 363.216 56.2745   6
  -9  -4  -9 426.986 52.7913   7
   9  -4  -7 2022.06 125.511   1
  -9   4  -7 1736.78 133.378   3
  -9  -4  -7 1614.18 120.051   4
  -9   4  -7 1733.51 99.9017   4
  -9  -4  -7 1222.96 104.675   6
  -9   4  -7 1225.36 76.3718   5
  -9   4  -7 1231.81 81.8052   7
  -9  -4  -7 1248.71 90.6835   7
  -9   4  -5 88.0603 36.5204   3
  -9  -4  -5 101.297 32.4227   4
  -9   4  -5 46.2356 20.0580   5
  -9  -4  -5 67.9966 34.8502   6
  -9   4  -5 73.7564 22.8569   7
  -9   4  -3 1438.84 84.1860   4
  -9  -4  -3 1457.95 98.6058   4
   9   4  -3 1452.83 60.0648   2
   9   4  -3 1112.88 87.4298   8
   9  -4  -3 1638.14 131.317   6
  -9   4  -3 1119.26 76.7748   7
  -9   4  -1 189.111 32.4493   4
  -9  -4  -1 204.354 36.8562   4
   9   4  -1 147.659 39.7650   8
   9  -4  -1 206.803 54.1340   6
  -9   4  -1 142.646 30.3321   7
  -9  -4   1 349.397 44.9330   4
  -9   4   1 310.127 40.2451   4
   9  -4   1 315.005 42.3129   2
  -9  -4   1 297.589 40.5999   3
   9   4   1 288.055 56.3432   8
   9  -4   1 445.573 72.4266   6
  -9  -4   3 1291.99 74.9591   3
  -9  -4   3 1477.57 85.7917   4
  -9   4   3 1465.57 82.7785   4
   9  -4   3 1605.76 136.011   6
  -9  -4   5 77.2904 23.8919   4
   9  -4   5 73.7326 24.1315   4
  -9   4   5 35.9606 20.1580   5
  -9   4   5 62.1760 22.0079   4
  -9  -4   5 72.1394 19.2593   3
  -9   4   5 107.694 26.6735   2
  -9   4   5 58.2707 18.5545   8
   9  -4   5 47.5361 39.1123   6
  -9  -4   5 35.9390 33.4712   6
  -9   4   7 1491.37 87.7829   4
   9  -4   7 1533.56 90.6622   4
  -9   4   7 1500.61 80.3266   8
  -9   4   7 1426.47 90.3207   5
   9   4   9 335.631 54.3478   4
  -9   4   9 460.100 50.1270   4
   9  -4   9 487.353 52.3786   4
   9  -4   9 413.853 60.7805   2
   9  -4   9 575.132 53.1553   8
  -9   4   9 414.587 48.7320   8
  -9  -4  11 120.831 27.2323   4
   9   4  11 84.3044 34.4363   4
  -9   4  11 99.0650 28.3781   4
  -9   4  11 95.4646 27.5789   2
   9  -4  11 126.998 34.0039   8
  -9   4  11 115.273 30.3883   8
  -9   4  11 126.134 29.9566   5
  -9  -4  11 69.7133 34.7880   6
   9   4  13 1192.96 106.541   4
   9   4  13 1195.95 126.436   3
  -9  -4  13 1449.77 82.8441   4
   9  -4  13 1466.38 94.6916   4
  -9   4  13 1424.86 90.6592   2
  -9  -4  13 1404.98 147.145   8
  -9   4  13 1331.53 94.9242   8
   9  -4  13 1696.09 106.012   8
  -9  -4  13 1096.29 100.782   6
  -9   4  13 1292.64 86.4080   5
   9  -4  15 52.8694 28.7364   4
   9   4  15 14.1907 29.0503   4
  -9  -4  15 40.6509 22.2509   4
  -9   4  15 16.7719 22.0849   2
   9   4  15 19.7327 34.4562   3
  -9  -4  15 34.5590 14.6147   2
   9  -4  15 38.2128 28.9886   8
  -9   4  15 23.2867 27.1180   8
  -9   4  15 64.4898 24.1550   5
  -9  -4  15 36.1136 28.3716   6
   9  -4  17 37.4283 27.8388   4
   9   4  17 51.1320 37.6139   4
  -9  -4  17 39.6313 23.3237   4
  -9  -4  17 60.8372 17.2138   2
   9  -4  17 66.6497 36.5420   8
  -9  -4  17 38.3595 27.0471   6
  -9   4  17 27.1010 20.5415   5
   9  -4  19 974.379 82.5127   4
   9  -4  19 847.017 92.9904   8
  -9  -4  19 461.559 52.0989   5
  -9   4  19 649.074 51.6693   5
  -9  -5 -18 16.5151 17.8666   5
   9   5 -18 21.4302 31.2413   1
  -9  -5 -18 6.15340 26.4569   7
  -9   5 -18 19.1786 18.6475   5
  -9  -5 -16 829.240 74.7322   7
  -9   5 -16 856.818 79.5336   7
   9  -5 -16 958.062 113.565   9
   9   5 -16 826.314 97.9219   9
  -9   5 -16 873.256 61.2697   5
  -9  -5 -16 844.705 66.4985   6
  -9   5 -14 1016.20 96.8621   4
  -9   5 -14 826.840 74.8759   7
  -9  -5 -14 829.998 73.8038   7
  -9  -5 -14 853.729 74.6370   6
  -9   5 -14 807.678 60.9320   5
  -9   5 -12 1023.10 90.5900   4
   9   5 -12 1041.98 67.1064   1
  -9   5 -12 709.247 67.1830   7
  -9  -5 -12 753.708 74.5414   6
  -9   5 -12 689.895 57.8909   5
  -9  -5 -10 984.540 110.950   4
   9  -5 -10 902.017 60.5833   1
  -9   5 -10 1031.31 114.228   3
  -9   5 -10 734.088 64.6078   7
  -9  -5 -10 688.466 69.1903   7
  -9  -5  -8 2005.61 143.313   4
  -9   5  -8 1924.21 105.519   4
   9  -5  -8 2240.10 124.374   1
  -9   5  -8 1966.30 145.555   3
  -9   5  -8 1449.24 88.1441   7
  -9  -5  -8 1336.41 113.767   6
  -9   5  -8 1426.79 85.1941   5
  -9  -5  -8 1427.35 96.7959   7
   9  -5  -6 4916.50 201.800   1
  -9  -5  -6 4337.95 197.104   4
  -9   5  -6 4712.40 218.987   3
  -9   5  -6 4311.39 158.558   4
  -9   5  -6 3660.65 141.962   5
   9  -5  -6 4390.88 222.309   6
  -9   5  -6 3383.80 139.544   7
   9   5  -4 18.6941 8.53270   2
  -9   5  -4 17.5992 17.7393   4
  -9  -5  -4 18.0516 21.6496   4
   9  -5  -4 40.1500 34.6132   6
  -9   5  -4 10.4651 14.0255   5
  -9   5  -4 10.6503 15.8210   7
   9   5  -2 1117.99 55.1418   2
   9  -5  -2 1175.13 76.2778   2
  -9   5  -2 1142.25 73.6593   4
  -9  -5  -2 1068.46 84.3753   4
   9  -5  -2 1165.44 108.922   6
  -9   5  -2 914.703 69.0577   7
  -9  -5   0 5474.28 189.242   4
   9   5   0 4904.42 173.223   4
  -9   5   0 6135.77 180.099   4
   9  -5   0 4734.87 169.532   2
   9   5   0 4342.13 224.473   8
   9  -5   0 6243.81 257.230   6
  -9   5   0 4523.52 164.307   7
  -9  -5   2 1050.18 75.9424   4
  -9   5   2 1188.33 73.6360   4
   9   5   2 951.847 75.8753   4
  -9  -5   4 23.1672 19.4680   4
  -9   5   4 31.2446 18.1423   4
  -9   5   4 27.6773 18.5383   2
  -9  -5   4 26.5816 14.9249   3
  -9   5   4 13.7693 11.8757   8
  -9   5   4 4.33187 14.8025   5
   9  -5   4 20.6670 29.0938   6
   9  -5   6 3969.64 146.965   4
  -9   5   6 4155.70 151.337   4
  -9   5   6 4370.35 157.141   2
  -9  -5   6 3794.10 112.862   3
  -9   5   6 4017.32 127.444   8
  -9   5   6 3696.44 149.764   5
  -9  -5   8 1696.04 88.5336   4
  -9   5   8 1536.17 90.7565   4
   9  -5   8 1742.04 135.110   1
  -9  -5   8 1438.84 57.1506   3
   9  -5   8 1436.06 106.089   2
  -9   5   8 1522.51 78.7094   8
  -9   5   8 1532.95 93.2232   5
  -9  -5  10 816.987 60.4091   4
   9   5  10 649.323 89.5131   3
  -9  -5  10 753.197 37.2642   3
  -9   5  10 701.745 62.8815   4
   9  -5  10 890.796 101.265   1
   9  -5  10 766.058 80.8844   2
  -9   5  10 801.600 61.1852   8
  -9   5  10 761.252 67.0505   5
   9   5  12 619.711 79.9781   4
   9   5  12 749.761 100.078   3
   9  -5  12 1002.81 74.7820   4
  -9  -5  12 889.981 64.2301   4
  -9   5  12 962.387 75.4082   2
   9  -5  12 1157.55 97.0320   8
  -9   5  12 915.695 70.6897   8
  -9   5  12 740.132 65.5434   5
  -9  -5  12 540.489 78.6615   6
   9   5  14 697.367 85.5155   4
   9  -5  14 963.872 75.0436   4
  -9  -5  14 854.734 62.2752   4
   9   5  14 785.430 106.262   3
  -9   5  14 809.291 71.7267   2
  -9   5  14 949.305 78.1510   8
   9  -5  14 1021.10 97.2524   8
  -9  -5  14 622.635 78.3268   6
  -9   5  14 819.266 68.1503   5
   9   5  16 920.729 102.277   4
  -9  -5  16 1022.42 68.5316   4
   9  -5  16 1151.98 82.9113   4
   9   5  16 1047.26 124.293   3
  -9  -5  16 725.784 38.3818   3
   9  -5  16 1113.20 105.112   8
  -9  -5  16 823.869 85.5593   6
  -9   5  16 870.988 67.3608   5
  -9  -5  18 15.9734 20.3018   4
   9  -5  18 11.9235 21.9381   4
   9  -5  18-6.45536 37.4425   8
  -9  -5  18 25.2520 22.8011   6
  -9   5  18 20.8368 19.9822   5
   9  -5  20 12.3007 23.1530   4
  -9  -6 -19 194.754 43.0512   7
  -9  -6 -17 761.357 72.3637   7
  -9   6 -17 886.568 63.5605   5
  -9  -6 -17 819.703 65.0777   6
  -9   6 -15 809.491 89.4384   4
  -9   6 -15 629.617 70.5764   7
   9  -6 -15 717.553 97.1256   9
   9   6 -15 661.302 85.6163   9
  -9  -6 -15 625.493 65.1222   7
  -9  -6 -15 681.917 67.4995   6
  -9   6 -15 665.748 56.1086   5
  -9   6 -13 906.280 78.1748   7
  -9   6 -13 889.542 65.9080   5
  -9  -6 -13 902.532 85.5482   6
  -9  -6 -13 882.285 75.5706   7
  -9   6 -11 927.892 80.2273   4
   9  -6 -11 886.395 52.2068   1
  -9   6 -11 732.281 65.6637   7
  -9   6 -11 720.640 60.0159   5
  -9  -6 -11 569.867 74.7250   6
  -9   6  -9 630.581 61.7069   4
  -9  -6  -9 647.074 89.3295   4
   9  -6  -9 655.039 58.2240   1
  -9   6  -9 706.444 95.1716   3
  -9   6  -9 453.664 50.9757   7
  -9   6  -9 462.637 48.4263   5
  -9  -6  -9 490.462 58.6880   7
  -9   6  -7 2832.80 171.604   3
  -9  -6  -7 2557.22 161.205   4
   9  -6  -7 2810.55 139.493   1
  -9   6  -7 1948.92 103.304   7
   9  -6  -7 2448.11 165.707   6
  -9   6  -7 2038.55 103.025   5
  -9  -6  -5 2132.96 134.193   4
  -9   6  -5 1938.85 98.1761   4
   9  -6  -5 1870.22 138.114   6
  -9   6  -5 1461.23 88.3847   5
  -9   6  -5 1467.22 86.8827   7
   9   6  -3 463.324 29.2888   2
  -9  -6  -3 429.715 58.8207   4
  -9   6  -3 410.312 46.1755   4
   9  -6  -3 400.340 65.6913   6
  -9   6  -3 366.699 42.9468   7
   9   6  -1 2745.32 96.3567   2
   9  -6  -1 2409.59 116.283   2
   9   6  -1 2562.42 118.447   4
  -9  -6  -1 2745.87 135.694   4
  -9   6  -1 2814.35 115.912   4
   9  -6  -1 2861.03 170.601   6
  -9   6  -1 2289.32 110.145   7
   9  -6   1 3188.69 181.861   1
  -9  -6   1 2524.07 123.579   4
  -9   6   1 2559.84 111.575   4
   9   6   1 1983.70 109.496   4
   9  -6   1 2860.41 168.019   6
  -9   6   1 2037.10 103.739   7
  -9  -6   3 413.597 48.1465   4
  -9   6   3 420.785 45.9427   4
   9   6   3 401.105 52.5984   4
   9  -6   3 498.137 76.6312   1
  -9   6   3 429.114 50.2711   2
  -9   6   3 341.317 24.9550   8
  -9   6   3 361.481 45.5723   5
   9  -6   3 479.943 73.4220   6
   9   6   5 1493.25 105.308   4
  -9   6   5 1968.59 100.602   4
   9  -6   5 2376.35 161.744   1
  -9   6   5 1956.18 104.667   2
  -9   6   5 1725.36 69.8766   8
   9  -6   5 2061.14 148.747   6
  -9   6   5 1712.61 100.366   5
   9   6   7 1732.68 119.104   4
  -9  -6   7 2285.71 104.406   4
  -9   6   7 2130.99 107.148   4
  -9   6   7 2319.40 115.278   2
   9  -6   7 1972.14 123.268   2
   9  -6   7 2671.15 173.808   1
  -9   6   7 2157.33 87.0991   8
   9  -6   7 2612.28 169.614   6
  -9   6   7 1977.12 109.280   5
  -9  -6   9 625.073 53.6467   4
   9   6   9 410.336 63.0738   4
  -9   6   9 553.133 56.9299   4
   9   6   9 503.485 79.0021   3
   9  -6   9 652.232 57.7103   4
   9  -6   9 595.312 71.3084   2
   9  -6   9 742.315 93.3292   1
  -9   6   9 596.425 49.0543   8
  -9  -6  11 718.749 56.8940   4
   9   6  11 570.456 88.1084   3
   9   6  11 423.074 66.6406   4
   9  -6  11 770.506 62.9066   4
   9  -6  11 682.728 78.5112   2
  -9   6  11 727.074 59.3175   8
   9  -6  11 913.318 111.112   6
  -9   6  11 623.611 61.5304   5
  -9  -6  13 1007.99 66.6888   4
   9   6  13 746.162 88.6985   4
   9   6  13 997.800 121.449   3
   9  -6  13 1109.19 77.5789   4
  -9   6  13 1048.44 82.6160   2
   9  -6  13 986.003 97.4578   2
  -9   6  13 950.712 73.4431   8
  -9   6  13 885.060 71.9093   5
  -9  -6  13 612.175 88.1391   6
   9   6  15 646.845 87.4754   4
   9   6  15 733.104 109.442   3
   9  -6  15 906.979 71.3434   4
  -9  -6  15 732.362 57.7812   4
   9  -6  15 1028.80 106.732   8
  -9   6  15 803.349 72.0776   8
  -9   6  15 747.859 64.9183   5
  -9  -6  15 500.526 73.9189   6
   9  -6  17 939.677 73.5514   4
  -9  -6  17 958.314 66.6143   4
   9  -6  17 1186.18 121.594   8
  -9  -6  17 664.661 78.1340   6
  -9   6  17 783.232 63.4507   5
   9  -6  19 186.148 36.6284   4
  -9  -6  19 124.420 36.7954   6
  -9  -7 -18 315.324 51.1570   7
  -9   7 -18 306.001 39.8954   5
  -9  -7 -18 299.299 40.8789   6
  -9  -7 -16 1403.68 96.3254   7
  -9  -7 -16 1339.05 94.4007   6
  -9   7 -16 1413.63 84.0576   5
  -9  -7 -14 905.667 78.5796   7
  -9   7 -14 1077.97 87.1550   7
  -9  -7 -14 832.037 84.4134   6
  -9   7 -12 1600.68 100.638   7
  -9   7 -12 1626.94 91.0639   5
  -9  -7 -12 1553.07 125.438   6
  -9  -7 -12 1660.15 103.616   7
  -9  -7 -10 2484.24 189.496   4
  -9   7 -10 2294.85 117.540   4
  -9   7 -10 2645.79 180.576   3
   9  -7 -10 2327.39 162.319   6
  -9   7  -8 3033.04 184.779   3
  -9   7  -8 2699.18 123.525   4
  -9  -7  -8 2865.14 185.002   4
   9  -7  -8 2777.01 127.130   1
  -9   7  -8 2158.31 110.437   7
   9  -7  -8 2709.88 169.782   6
  -9   7  -8 2244.29 110.382   5
  -9   7  -6 6689.97 259.861   3
  -9  -7  -6 6303.51 257.295   4
  -9   7  -6 4887.61 169.744   7
   9  -7  -6 6352.86 256.608   6
  -9   7  -6 4739.63 171.184   5
  -9   7  -4 1087.36 72.7104   4
  -9  -7  -4 1258.39 103.858   4
   9  -7  -4 1160.00 108.835   6
  -9   7  -4 965.770 68.5168   7
  -9   7  -4 875.821 68.5254   5
   9   7  -2 2113.43 71.7012   2
   9  -7  -2 1852.31 102.179   2
  -9   7  -2 2280.69 104.826   4
  -9  -7  -2 2121.68 124.898   4
   9   7  -2 1967.14 100.465   4
   9  -7  -2 2216.30 148.906   6
  -9   7  -2 1774.32 95.0395   7
   9  -7   0 9988.46 324.687   1
   9  -7   0 7431.57 232.148   2
   9   7   0 7340.04 228.452   4
  -9  -7   0 9072.05 260.231   4
  -9   7   0 8663.18 229.006   4
   9  -7   0 9620.81 325.387   6
   9  -7   2 1903.06 137.489   1
  -9   7   2 1786.25 105.114   2
  -9   7   2 1868.50 95.2689   4
   9   7   2 1557.09 100.260   4
   9  -7   2 2009.86 141.703   6
  -9   7   2 1433.23 91.6384   5
   9   7   4 1168.94 90.3246   4
  -9   7   4 1354.67 82.1124   4
   9  -7   4 1371.89 118.469   1
  -9   7   4 1338.08 88.5309   2
  -9   7   4 1245.39 51.0399   8
   9  -7   4 1459.96 122.852   6
  -9   7   4 1121.49 80.1939   5
  -9   7   4 1181.50 75.7716   7
   9   7   6 4511.55 199.539   4
  -9  -7   6 5865.60 181.300   4
  -9   7   6 5639.17 182.279   4
   9  -7   6 5826.51 251.639   1
   9  -7   6 4825.15 198.169   2
  -9   7   6 5781.70 195.056   2
  -9   7   6 5190.68 137.560   8
   9  -7   6 6582.41 268.757   6
  -9   7   6 4953.22 182.346   5
  -9  -7   8 2801.99 115.624   4
  -9   7   8 2527.35 120.938   4
   9  -7   8 2764.31 171.513   1
  -9   7   8 2558.42 125.392   2
   9  -7   8 2430.29 138.892   2
  -9   7   8 2452.84 94.9265   8
  -9  -7  10 2605.74 108.754   4
   9   7  10 1631.70 128.555   4
   9   7  10 1846.16 156.084   3
   9  -7  10 2536.00 111.116   4
   9  -7  10 2325.11 140.130   2
  -9   7  10 2217.95 98.1303   8
   9  -7  10 2802.23 182.004   6
  -9   7  10 2053.96 113.817   5
  -9  -7  12 1838.88 89.9690   4
   9   7  12 1099.19 107.977   4
   9  -7  12 1876.67 96.5428   4
   9   7  12 1353.80 139.975   3
  -9   7  12 1650.50 91.8174   8
  -9   7  12 1608.49 98.8103   5
   9  -7  12 2174.05 166.223   6
  -9  -7  14 1133.14 70.1269   4
   9   7  14 883.827 116.771   3
   9   7  14 874.026 100.028   4
   9  -7  14 1254.52 79.3226   4
   9  -7  14 1111.43 102.359   2
  -9   7  14 1057.31 79.1042   8
  -9   7  14 1033.64 78.0530   5
  -9  -7  14 641.114 92.9737   6
  -9  -7  16 1623.83 82.9429   4
  -9   7  16 1616.34 94.9399   5
   9  -7  18 372.210 46.3198   4
  -9  -7  18 236.803 49.7800   6
  -9   7  18 315.620 41.4757   5
  -9  -8 -19 153.121 39.6314   7
   9   8 -17 173.184 48.5823   1
  -9  -8 -17 118.408 36.0254   7
  -9  -8 -17 121.698 34.3255   6
  -9   8 -17 97.7914 27.5760   5
  -9   8 -15 229.059 51.9843   4
   9   8 -15 170.669 46.9384   1
   9  -8 -15 165.165 55.5504   9
   9   8 -15 191.604 50.5956   9
  -9   8 -15 156.612 32.1252   5
  -9  -8 -15 111.864 39.1565   6
  -9  -8 -15 148.482 36.5291   7
  -9   8 -13 635.387 68.3518   7
   9  -8 -13 815.968 99.6434   9
  -9  -8 -13 639.740 66.0270   7
  -9  -8 -13 642.266 85.2469   6
  -9   8 -13 731.998 62.9851   5
  -9   8 -11 110.090 33.2062   4
   9   8 -11 107.977 31.6359   1
  -9   8 -11 81.1528 28.1772   7
  -9   8 -11 109.787 28.6915   5
   9  -8 -11 47.9081 41.1498   6
  -9  -8 -11 70.2803 29.0363   7
  -9  -8  -9 286.308 73.4387   4
  -9   8  -9 247.316 39.8546   4
  -9   8  -9 293.769 65.2897   3
  -9   8  -9 200.508 37.9685   7
  -9   8  -9 195.597 35.4950   5
  -9   8  -7 1106.14 75.6795   4
  -9   8  -7 1270.27 117.305   3
  -9  -8  -7 1127.36 114.164   4
  -9   8  -7 914.094 70.4578   7
   9  -8  -7 1137.50 110.472   6
  -9   8  -7 918.013 71.2044   5
  -9  -8  -5 342.745 63.4079   4
  -9   8  -5 262.296 39.4550   7
   9  -8  -5 378.916 67.1942   6
  -9   8  -5 236.305 37.6561   5
  -9   8  -3 391.851 44.6548   4
  -9  -8  -3 386.106 60.7584   4
   9   8  -3 391.547 21.6550   2
  -9   8  -3 301.932 39.3110   7
   9  -8  -3 408.844 70.5318   6
  -9   8  -3 302.159 43.2175   5
   9   8  -1 708.241 44.4820   2
   9  -8  -1 610.754 60.5003   2
  -9  -8  -1 794.279 75.8856   4
   9   8  -1 683.057 60.4548   4
  -9   8  -1 724.804 59.7483   4
  -9   8  -1 606.723 59.6122   5
   9  -8   1 828.256 95.1019   1
   9  -8   1 554.323 59.1255   2
  -9   8   1 655.411 56.3537   4
   9   8   1 569.858 59.1537   4
   9  -8   1 748.646 91.3229   6
  -9   8   1 550.141 57.9467   5
  -9   8   1 525.062 49.0719   7
   9   8   3 317.261 47.9469   4
  -9   8   3 350.966 43.6284   4
  -9  -8   3 398.819 49.7124   4
   9  -8   3 257.013 43.7114   2
   9  -8   3 440.734 73.1455   1
  -9   8   3 340.088 47.1361   2
  -9   8   3 339.070 22.8494   8
   9  -8   3 427.191 70.1851   6
  -9   8   3 343.727 46.1890   5
  -9   8   3 278.377 37.4441   7
   9   8   5 279.373 48.7433   4
  -9  -8   5 391.061 46.5787   4
  -9   8   5 286.976 41.8311   4
   9  -8   5 285.341 46.5584   2
  -9   8   5 353.083 49.4322   2
   9  -8   5 361.516 67.7689   1
  -9   8   5 305.048 27.0422   8
   9  -8   5 393.303 69.4831   6
  -9   8   5 320.735 45.2250   5
  -9   8   5 279.702 36.8153   7
   9   8   7 765.683 82.4081   4
  -9  -8   7 984.451 68.6410   4
  -9   8   7 1002.17 75.2418   4
   9  -8   7 897.667 82.5681   2
  -9   8   7 1101.33 83.5448   2
   9  -8   7 1132.49 113.987   1
  -9   8   7 976.194 54.2661   8
   9  -8   7 1118.61 111.126   6
  -9   8   7 861.277 74.3985   5
  -9   8   7 981.160 66.6415   7
  -9  -8   9 286.995 37.8623   4
   9   8   9 197.209 48.3087   4
  -9   8   9 269.529 44.2196   2
   9  -8   9 321.529 53.6899   2
  -9   8   9 253.161 32.1563   8
  -9  -8  11 85.8557 25.6231   4
   9   8  11 78.7637 35.0331   4
   9  -8  11 99.5321 25.9299   4
   9  -8  11 69.5025 33.2358   2
  -9   8  11 64.8678 23.3763   8
   9  -8  11 84.9537 49.5631   6
  -9   8  11 90.2758 30.4113   5
  -9  -8  13 771.898 57.0790   4
   9   8  13 543.638 79.9278   4
   9   8  13 554.717 96.1851   3
   9  -8  13 820.162 61.0233   4
   9  -8  13 839.705 87.6215   2
  -9   8  13 753.693 63.0364   8
   9  -8  13 919.836 113.147   6
  -9   8  13 630.286 64.5324   5
  -9  -8  15 233.837 34.6349   4
   9  -8  15 245.297 36.3475   4
   9   8  15 199.532 66.7395   3
   9  -8  15 219.267 51.0302   2
  -9   8  15 212.112 39.0147   8
  -9  -8  15 89.7625 48.1288   6
  -9   8  15 193.619 38.0189   5
  -9  -8  17 110.597 25.9654   4
   9  -8  17 144.249 29.9731   4
  -9  -8  17 47.3772 37.4438   6
  -9   8  17 81.4124 28.5947   5
   9   9 -18 107.084 47.2011   1
  -9  -9 -18 46.9696 26.4743   7
  -9  -9 -18 39.9638 28.4905   6
  -9   9 -16 532.292 71.3847   4
   9   9 -16 504.561 68.3043   1
  -9  -9 -16 362.328 51.4496   7
   9   9 -16 442.615 71.7945   9
  -9  -9 -16 285.445 55.0118   6
  -9   9 -16 406.034 49.5709   5
  -9   9 -14 164.045 43.4449   4
   9   9 -14 220.854 47.1840   1
   9  -9 -14 118.651 52.0784   9
   9   9 -14 191.227 50.8440   9
  -9  -9 -14 77.9394 44.1056   6
  -9  -9 -14 142.410 34.2046   7
  -9   9 -14 125.122 31.6072   5
   9   9 -12 17.1612 26.7155   1
  -9   9 -12 26.3459 25.9636   7
  -9   9 -12 34.0878 23.2239   5
   9  -9 -12 23.4073 37.6352   6
  -9  -9 -12 11.0074 20.8915   7
  -9   9 -10 901.380 70.3744   4
   9  -9 -10 830.630 55.7240   1
  -9   9 -10 794.309 71.1484   7
   9  -9 -10 912.667 101.783   6
  -9  -9 -10 763.743 74.0421   7
  -9  -9  -8 30.8461 43.8088   4
  -9   9  -8 52.1900 23.7702   4
   9  -9  -8 30.0897 24.6785   1
  -9   9  -8 21.8315 19.3949   7
  -9   9  -8 44.6599 24.0912   5
  -9  -9  -6 134.457 51.0242   4
  -9   9  -6 165.476 33.0500   4
  -9   9  -6 119.346 28.7475   7
   9  -9  -6 112.817 45.2217   6
  -9   9  -6 121.533 30.2472   5
   9  -9  -4 381.707 57.4224   1
   9   9  -4 387.052 42.2847   4
  -9  -9  -4 396.092 66.4368   4
   9  -9  -4 343.553 66.3382   6
  -9   9  -4 268.851 41.6105   5
   9   9  -2 79.5949 13.4115   2
   9  -9  -2 69.6094 38.4551   6
  -9   9  -2 53.8036 23.0382   5
  -9   9   0 495.606 49.4431   4
   9   9   0 398.101 48.5846   4
   9  -9   0 512.403 69.4632   1
   9  -9   0 373.799 50.2301   2
  -9   9   0 393.958 42.1957   7
   9  -9   0 580.723 80.8575   6
  -9   9   0 402.465 50.2331   5
   9  -9   2 42.1894 24.3272   2
  -9   9   2 30.8995 25.7939   2
   9   9   2 60.1072 26.8702   4
  -9  -9   2 39.1237 25.6465   4
  -9   9   2 81.1867 26.2783   4
   9  -9   2 60.9620 38.4782   6
  -9   9   2 33.4491 17.2756   7
  -9   9   2 56.1744 24.4023   5
   9  -9   4 269.345 46.1050   2
   9  -9   4 309.407 58.9643   1
  -9   9   4 360.624 50.5593   2
   9   9   4 403.950 55.8364   4
  -9   9   4 428.007 48.9496   4
  -9  -9   4 374.463 48.1393   4
   9  -9   4 427.074 71.6026   6
  -9   9   4 401.840 51.6254   5
  -9   9   4 330.280 38.7215   7
   9  -9   6 140.292 36.9938   2
   9   9   6 100.645 40.5650   3
   9  -9   6 205.340 52.1603   1
  -9   9   6 131.637 35.2396   2
   9   9   6 128.433 38.0944   4
  -9   9   6 155.622 33.3467   4
  -9  -9   6 163.331 32.2365   4
   9  -9   6 192.776 54.5317   6
  -9   9   6 135.872 32.9206   5
  -9   9   6 124.686 25.9880   7
   9  -9   8 10.9815 22.3043   2
  -9   9   8 36.8176 26.7477   2
   9   9   8 24.2886 37.8482   3
   9   9   8 25.7452 26.9460   4
  -9  -9   8 38.9817 20.4069   4
  -9   9   8 36.9098 18.1329   7
   9   9  10 643.174 83.4841   4
  -9  -9  10 904.593 63.6660   4
   9  -9  10 980.325 92.2003   2
  -9   9  10 837.573 58.3444   8
   9  -9  10 1106.02 115.352   6
  -9   9  10 918.435 60.8489   7
  -9   9  10 824.245 74.6894   5
   9   9  12-3.23009 29.3349   4
   9  -9  12 66.6201 32.8823   2
  -9   9  12 31.9600 20.9607   8
  -9   9  12 18.0869 23.6277   5
   9  -9  12 34.7589 40.0449   6
  -9   9  12 30.8158 19.6213   7
  -9  -9  14 144.630 28.1064   4
   9  -9  14 176.532 47.8050   2
  -9   9  14 176.328 36.2973   8
  -9   9  14 119.722 34.7068   5
   9  -9  14 152.752 58.8259   6
  -9  -9  16 493.375 44.2849   4
   9  -9  16 491.159 46.3209   4
  -9   9  16 393.881 51.8026   5
  -9  -9  18 42.2024 35.4962   6
   9  10 -17 30.1674 38.0555   1
  -9 -10 -17 57.2272 29.2256   7
  -9 -10 -17 52.3119 35.9836   6
  -9  10 -15 80.9451 36.1077   4
   9  10 -15 41.1978 35.7021   1
   9 -10 -15 62.5673 43.9534   9
   9  10 -15 86.8012 40.8361   9
  -9 -10 -15 52.2719 40.1003   6
  -9 -10 -15 108.622 33.7127   7
  -9  10 -15 83.1077 29.9095   5
  -9  10 -13 813.449 73.8305   4
  -9  10 -13 669.831 72.8731   7
   9 -10 -13 643.077 91.9997   9
   9  10 -13 677.642 80.5371   9
  -9  10 -13 670.354 65.4174   5
  -9 -10 -13 718.404 70.4586   7
  -9  10 -11 555.347 56.9519   4
   9  10 -11 672.815 66.9190   1
  -9  10 -11 444.610 57.0037   7
   9 -10 -11 588.943 85.3527   6
  -9  10 -11 420.868 52.4450   5
  -9 -10 -11 402.958 56.2009   7
  -9  10  -9 1362.73 84.5779   4
   9 -10  -9 1103.77 73.7144   1
  -9  10  -9 1106.38 82.7231   7
   9 -10  -9 1459.94 126.840   6
  -9  10  -9 1173.22 83.3740   5
  -9 -10  -9 999.821 86.7632   7
  -9  10  -7 486.184 50.6178   4
  -9 -10  -7 581.348 93.5064   4
  -9  10  -7 361.362 47.0649   7
   9 -10  -7 497.172 79.3125   6
  -9  10  -7 367.149 48.6422   5
   9 -10  -5 513.599 64.3028   1
  -9  10  -5 500.778 50.1237   4
   9 -10  -5 563.120 82.9449   6
  -9  10  -5 509.594 56.0444   5
  -9  10  -3 4131.55 144.165   4
   9  10  -3 4158.62 145.340   4
   9 -10  -3 3744.13 182.225   1
  -9  10  -3 3364.00 132.874   7
  -9  10  -3 3387.44 150.801   5
   9 -10  -3 4376.33 218.321   6
   9  10  -1 111.691 18.4091   2
  -9 -10  -1 130.058 41.7905   4
   9 -10  -1 146.557 47.9130   6
  -9  10  -1 114.517 31.2796   5
  -9  10  -1 107.021 26.3062   7
  -9 -10   1 201.161 41.8036   4
  -9  10   1 192.123 33.3685   4
   9 -10   1 123.366 32.0519   2
   9 -10   1 154.553 45.7225   1
  -9  10   1 136.434 26.5289   7
  -9  10   1 152.675 25.1221   8
   9 -10   1 131.022 48.1757   6
  -9  10   1 128.856 32.8064   5
   9  10   3 3705.34 166.138   4
  -9 -10   3 3799.90 157.373   4
  -9  10   3 4062.02 149.921   4
  -9  10   3 3991.75 167.820   2
   9 -10   3 3698.15 189.197   1
   9 -10   3 3115.83 153.450   2
  -9  10   3 3396.30 123.854   7
   9 -10   3 4609.39 221.250   6
  -9  10   3 3628.98 158.296   5
   9 -10   5 440.261 59.7143   2
  -9  10   5 546.180 62.7764   2
   9 -10   5 526.883 73.4083   1
   9  10   5 462.942 63.3031   4
  -9  10   5 558.263 56.3628   4
  -9 -10   5 530.558 54.6053   4
   9 -10   5 674.939 87.4717   6
  -9  10   5 523.469 60.8388   5
  -9  10   5 512.992 44.0487   7
   9 -10   7 378.447 57.3067   2
   9  10   7 287.600 62.1974   3
   9  10   7 342.298 58.5839   4
  -9 -10   7 401.139 46.5789   4
   9 -10   7 539.730 82.4091   6
  -9  10   7 363.221 36.7935   7
  -9  10   7 403.324 54.0295   5
   9 -10   9 1230.37 101.536   2
   9  10   9 1092.96 105.813   4
   9  10   9 794.402 105.606   3
  -9 -10   9 1286.56 77.1904   4
   9 -10   9 1703.09 142.641   6
  -9  10   9 1307.40 66.0641   7
  -9  10   9 1216.70 91.5236   5
   9 -10  11 469.611 65.6294   2
   9  10  11 376.590 80.6813   3
   9  10  11 376.742 69.9763   4
  -9 -10  11 527.527 48.1937   4
  -9  10  11 531.952 41.5375   7
  -9  10  11 457.508 58.2567   5
  -9 -10  13 759.228 54.0493   4
   9 -10  13 814.096 87.8002   2
  -9  10  13 701.555 60.7360   8
  -9  10  13 682.206 69.6967   5
  -9  10  13 807.419 48.0510   7
  -9  10  15 57.9831 28.7359   5
  -9 -10  17 36.6118 43.4580   6
   9  11 -16 322.805 71.8408   1
  -9 -11 -16 364.363 50.1553   7
  -9 -11 -16 283.493 65.9273   6
  -9  11 -14 17.4990 26.0841   4
   9  11 -14 21.2300 30.7185   1
   9 -11 -14 18.6107 37.5135   9
   9  11 -14 42.1833 34.3094   9
  -9 -11 -14 7.51078 21.3344   7
  -9  11 -14 41.5623 25.1675   5
  -9  11 -12 15.4176 24.6792   4
   9  11 -12 2.57680 33.5010   1
  -9  11 -12 2.04982 25.1378   7
   9 -11 -12 50.0435 39.9727   9
   9  11 -12-7.13456 26.2409   9
  -9 -11 -12 1.91905 21.1671   7
  -9  11 -12 21.4805 23.4682   5
  -9  11 -10 587.504 55.7580   4
   9  11 -10 525.810 62.0423   1
  -9  11 -10 499.383 58.7099   7
  -9 -11 -10 416.770 58.6452   7
  -9  11  -8 62.2512 24.4541   4
  -9  11  -8 50.7114 25.9415   5
  -9  11  -6 426.317 46.3644   4
  -9  11  -6 372.879 50.0987   5
  -9 -11  -4 218.448 60.3993   4
  -9  11  -4 211.832 34.5523   4
   9  11  -4 256.184 35.4579   4
   9 -11  -4 173.548 44.4200   1
  -9  11  -4 205.209 35.7568   7
   9 -11  -4 263.708 59.6548   6
  -9  11  -4 245.641 43.0490   5
  -9  11  -2 25.1227 20.0936   4
   9  11  -2 34.3853 20.4971   4
  -9 -11  -2 18.8963 28.3830   4
   9 -11  -2 35.7405 31.0589   1
   9  11  -2 22.8210 6.65537   2
  -9  11  -2 15.4084 8.66290   8
  -9  11  -2 11.5265 16.4109   7
   9 -11  -2 27.3708 36.2277   6
  -9  11  -2 16.1498 21.6192   5
  -9 -11   0 879.725 86.9079   4
   9  11   0 927.145 73.2614   4
  -9  11   0 767.109 49.8256   8
  -9  11   0 765.222 57.8364   7
  -9  11   0 784.917 72.4419   5
   9 -11   0 1034.09 109.558   6
   9 -11   2 15.8297 22.4796   2
   9 -11   2 47.4251 35.2476   1
  -9 -11   2 30.1760 25.2986   4
   9 -11   2-3.04060 32.3953   6
  -9  11   2 56.3576 27.1990   5
  -9  11   2 21.9421 15.7387   7
  -9 -11   4 185.066 38.1946   4
   9  11   4 107.050 36.0733   4
  -9  11   4 176.688 35.3009   4
   9 -11   4 137.163 37.1516   2
   9 -11   4 126.458 41.2549   1
  -9  11   4 147.936 25.6381   7
  -9  11   4 110.958 33.8553   5
  -9 -11   6 454.434 50.7740   4
   9  11   6 414.153 64.2183   4
   9  11   6 365.630 68.4739   3
   9 -11   6 389.904 56.9644   2
  -9  11   6 430.652 39.0741   7
  -9  11   6 387.698 53.6409   5
   9 -11   8 71.2616 34.1077   2
   9  11   8 40.6341 36.0924   3
  -9 -11   8 45.1817 22.1261   4
   9  11   8 38.4969 33.6684   4
  -9  11   8 74.8392 19.2739   7
   9  11  10 518.560 78.6887   4
  -9 -11  10 586.740 50.2390   4
   9 -11  10 566.521 69.6260   2
   9  11  10 418.799 83.1464   3
  -9  11  10 617.167 39.9073   7
  -9  11  10 610.019 69.0064   5
   9 -11  12 14.8387 30.3208   2
   9  11  12-4.56354 38.7045   3
  -9 -11  12 14.2146 16.8710   4
  -9  11  12 11.4029 11.1678   7
  -9  11  12 2.10324 25.4687   5
  -9  11  14 29.1067 27.9900   5
   9  12 -17 326.756 75.0222   1
  -9 -12 -17 214.517 60.6785   6
   9  12 -15 396.788 67.9157   1
  -9 -12 -15 274.560 46.1332   7
   9  12 -15 291.004 59.4891   9
  -9  12 -13 683.668 64.4055   4
   9 -12 -13 604.831 89.2642   9
   9  12 -13 650.370 76.9557   9
  -9 -12 -13 527.483 60.5109   7
  -9  12 -11 296.005 41.5635   4
   9  12 -11 310.714 61.3868   1
   9  12 -11 257.805 49.7166   9
   9 -12 -11 219.472 57.0815   9
  -9  12 -11 291.273 47.9601   5
  -9 -12 -11 232.642 44.8069   7
   9  12  -9 126.638 38.3528   1
  -9  12  -9 102.856 28.6065   4
  -9  12  -7 1401.48 80.7773   4
   9 -12  -7 1264.84 91.8693   1
  -9  12  -7 1127.93 85.2422   7
  -9  12  -7 1139.62 87.6730   5
  -9  12  -5 832.197 62.8780   4
  -9  12  -5 683.348 62.8766   7
  -9  12  -5 732.258 71.1650   5
  -9 -12  -3 28.7117 34.7913   4
  -9  12  -3 33.8722 20.2548   4
   9  12  -3 61.5805 23.4562   4
   9 -12  -3 17.2004 28.7858   1
  -9  12  -3 48.8758 22.3399   7
  -9  12  -3 38.1454 12.7476   8
  -9  12  -3 38.0743 25.5062   5
  -9 -12  -1 1114.91 103.222   4
   9  12  -1 1093.70 76.9255   4
  -9  12  -1 1130.27 74.3413   4
   9 -12  -1 1097.18 101.359   1
   9  12  -1 1197.72 47.8207   2
  -9  12  -1 993.332 68.9172   7
  -9  12  -1 1003.24 56.9366   8
  -9  12  -1 1055.69 85.3329   5
  -9  12   1 928.454 69.3500   4
  -9 -12   1 999.269 92.0308   4
   9  12   1 931.470 78.6065   4
  -9  12   1 965.986 72.6755   8
  -9  12   1 769.078 58.4264   7
  -9  12   1 849.660 78.6127   5
  -9 -12   3 41.4362 26.6175   4
   9 -12   3 53.8428 28.4805   2
  -9  12   3 35.3463 17.4241   7
  -9  12   3 34.1262 26.1606   5
  -9 -12   5 925.285 75.3429   4
   9  12   5 874.041 97.4733   3
   9 -12   5 877.162 83.0940   2
  -9  12   5 857.800 54.6971   7
  -9  12   5 918.989 83.6123   5
   9  12   7 873.532 107.540   3
   9  12   7 1121.73 105.246   4
   9 -12   7 1119.41 96.8436   2
  -9  12   7 1158.49 58.3624   7
  -9 -12   9 164.371 31.6957   4
   9  12   9 171.531 49.3230   4
   9 -12   9 118.198 39.9665   2
   9  12   9 105.407 52.8917   3
  -9  12   9 137.945 19.6086   7
  -9  12   9 106.929 36.3835   5
  -9 -12  11 292.088 35.3549   4
   9  12  11 286.166 66.0763   4
   9  12  11 168.316 65.3664   3
  -9  12  11 223.462 16.9080   7
  -9  12  11 280.116 50.6212   5
   9  12  13 573.065 106.286   3
  -9  12  13 646.822 72.2563   5
  -9 -13 -14 753.308 70.1859   7
   9 -13 -14 783.000 103.361   9
   9  13 -14 834.799 90.4646   9
  -9  13 -12 1267.25 81.8206   4
   9 -13 -12 1012.50 109.485   9
   9  13 -12 1088.76 94.9496   9
  -9 -13 -12 925.324 79.6565   7
  -9  13 -10 815.382 61.8792   4
   9 -13 -10 740.980 89.4575   9
   9  13 -10 696.133 74.0409   9
  -9  13 -10 716.248 72.8550   5
  -9 -13 -10 603.428 69.5440   7
  -9  13  -8 1880.33 94.3904   4
  -9  13  -8 1535.16 102.508   7
  -9  13  -8 1732.39 111.537   5
  -9  13  -6 2926.11 137.405   7
  -9  13  -6 2850.87 147.508   5
  -9  13  -4 994.793 67.6570   4
   9  13  -4 904.692 61.5260   4
  -9  13  -4 732.719 43.4139   8
  -9  13  -4 796.208 67.0670   7
  -9  13  -4 817.447 78.1410   5
  -9 -13  -2 1681.91 137.839   4
   9  13  -2 1740.69 93.7192   4
  -9  13  -2 1668.90 89.5628   4
   9 -13  -2 1659.92 126.356   1
  -9  13  -2 1412.26 70.5372   8
  -9  13  -2 1489.75 87.4175   7
  -9  13  -2 1487.20 104.748   5
  -9 -13   0 4919.69 219.590   4
  -9  13   0 4758.40 161.456   4
   9  13   0 4550.61 170.609   4
   9 -13   0 4603.57 214.119   1
  -9  13   0 4131.14 159.363   8
  -9  13   0 4265.92 149.191   7
  -9  13   0 4180.33 182.946   5
   9  13   2 1588.63 104.766   4
  -9 -13   2 1580.95 112.407   4
  -9  13   2 1691.00 96.0343   4
  -9  13   2 1524.27 80.2259   7
  -9  13   2 1508.12 108.095   5
   9  13   4 922.508 87.1877   4
  -9 -13   4 844.648 77.5719   4
   9 -13   4 785.253 79.9966   2
  -9  13   4 850.651 55.7033   7
  -9  13   4 836.553 82.6467   5
  -9 -13   6 3399.16 144.839   4
   9  13   6 3327.09 198.802   3
   9 -13   6 3416.53 167.081   2
  -9  13   6 3420.86 108.446   7
  -9  13   6 3197.22 164.107   5
  -9 -13   8 1839.17 96.0875   4
   9 -13   8 1860.32 124.642   2
   9  13   8 1453.12 140.940   3
  -9  13   8 1795.77 65.4690   7
  -9  13   8 1786.76 120.983   5
   9  13  10 671.685 105.222   3
   9  13  10 864.621 100.694   4
  -9 -13  10 878.613 60.3917   4
  -9  13  10 808.548 82.2747   5
   9  13  12 767.737 118.203   3
   9  14 -13 525.375 70.8153   9
   9 -14 -13 370.595 72.5820   9
  -9 -14 -13 441.931 56.0700   7
   9 -14 -11 415.080 71.5013   9
   9  14 -11 360.533 56.5201   9
  -9 -14 -11 354.793 53.8869   7
  -9  14  -9 386.721 42.9838   4
   9 -14  -9 320.760 61.5289   9
   9  14  -9 308.060 50.7936   9
  -9 -14  -9 277.778 50.8665   7
  -9  14  -7 1026.71 67.9532   4
  -9  14  -7 827.481 81.6193   5
  -9  14  -5 812.412 61.1537   4
   9 -14  -5 783.859 78.9132   1
  -9  14  -5 698.017 46.3488   8
  -9  14  -5 697.214 66.7911   7
  -9  14  -5 744.878 77.0638   5
  -9  14  -3 201.068 32.8533   4
   9  14  -3 228.733 35.3172   4
   9 -14  -3 205.135 54.8636   1
  -9  14  -3 168.629 35.6898   7
  -9  14  -3 182.028 28.2975   8
  -9  14  -3 137.939 41.3712   5
   9  14  -1 1312.81 83.9268   4
  -9  14  -1 1271.64 78.7610   4
  -9  14  -1 1087.15 74.9255   7
  -9  14  -1 1021.28 73.8044   8
  -9  14  -1 1137.32 96.1056   5
  -9 -14   1 1181.00 106.604   4
  -9  14   1 1091.58 76.4907   4
   9  14   1 1102.51 86.9592   4
  -9  14   1 982.029 85.9843   8
  -9  14   1 921.201 65.6772   7
  -9  14   1 969.483 91.2423   5
  -9 -14   3 130.883 42.8806   4
   9  14   3 156.710 40.6598   4
  -9  14   3 179.837 30.1825   7
  -9  14   3 146.663 43.9428   5
   9  14   5 921.405 89.7678   4
  -9 -14   5 755.472 72.5844   4
   9  14   5 915.670 101.182   3
   9 -14   5 841.059 84.3143   2
  -9  14   5 755.547 50.3739   7
  -9  14   5 832.354 85.8741   5
   9  14   7 785.227 103.492   3
   9 -14   7 879.917 87.0510   2
  -9 -14   7 862.466 69.4227   4
   9  14   7 960.454 99.0043   4
   9  14   9 245.923 67.8905   3
  -9 -14   9 339.102 41.4630   4
  -9  14   9 291.468 54.7942   5
   9  14  11 281.975 79.3851   3
   9  15 -12 297.191 54.3035   9
   9 -15 -12 246.142 59.7692   9
  -9 -15 -12 230.943 42.1245   7
   9 -15 -10 443.900 70.1881   9
   9  15 -10 403.297 57.4204   9
  -9 -15 -10 336.877 54.8461   7
  -9  15  -8 230.653 35.2844   4
   9  15  -8 228.858 42.4421   9
   9 -15  -8 260.888 53.9813   9
  -9  15  -6 1111.43 70.4074   4
  -9  15  -6 910.532 57.2402   8
  -9  15  -4 109.101 28.1764   4
   9  15  -4 90.6793 23.4115   4
  -9  15  -4 89.6905 24.1427   8
  -9  15  -2 118.914 30.9214   4
   9  15  -2 83.8993 26.2042   4
  -9  15  -2 71.2465 25.5678   8
  -9  15   0 1521.21 87.6168   4
   9  15   0 1562.86 94.1609   4
  -9  15   0 1368.00 99.3969   8
   9  15   0 1238.10 41.8023   2
   9  15   2 93.9573 36.0483   4
   9  15   4 90.7239 42.2176   3
   9  15   4 68.3516 37.5300   4
   9  15   6 989.670 110.922   3
   9  15   6 1137.48 103.293   4
   9  15   8 242.962 68.5282   3
   9  15  10 275.795 79.6546   3
   9  16  -9 234.754 43.6693   9
   9 -16  -9 277.649 54.5878   9
  -9 -16  -9 130.809 39.3711   7
   9 -16  -7 357.866 56.7873   9
   9  16  -7 291.758 46.0378   9
  -9  16  -5 183.897 32.6063   4
  -9  16  -3 556.706 52.1105   4
   9  16  -3 559.607 49.5729   4
  -9  16  -1 139.125 32.0469   4
   9  16  -1 114.377 30.9622   4
   9  16   1 144.727 37.5903   4
   9  16   1 120.459 16.2839   2
   9  16   3 587.044 67.9796   4
   9  16   5 217.618 51.2066   4
   9  16   5 216.257 57.3345   3
   9  16   7 251.024 67.7873   3
   9  16   9 195.098 67.4976   3
  -9  17  -4 272.073 38.3462   4
   9  17  -2 213.501 33.8569   4
   9  17   0 51.4604 26.3359   4
   9  17   2 217.976 45.1739   4
  -9  17   2 190.990 53.7921   8
   9  17   4 477.326 64.7453   4
   9  17   4 491.655 70.6506   3
   9  17   6 118.842 53.3416   3
   9  17   8 69.4113 51.3234   3
   9  18  -1 124.117 30.5692   4
   9  18   1 111.522 32.9406   4
   9  18   3 339.139 53.1961   4
   9  19   2 431.598 57.3323   4
 -10   0 -18 1384.35 74.2996   5
 -10   0 -16 3897.07 171.713   7
 -10   0 -16 3790.28 137.018   5
 -10   0 -14 921.766 80.6414   7
 -10   0 -14 842.603 63.6759   5
 -10   0 -12 1803.32 108.676   7
 -10   0 -12 1620.78 94.6558   5
 -10   0 -10 11442.7 342.084   4
 -10   0 -10 8248.25 259.673   7
 -10   0  -8 4953.74 246.653   3
 -10   0  -8 4948.96 202.217   4
 -10   0  -6 4024.58 208.327   3
 -10   0  -6 4125.21 175.312   4
 -10   0  -4 11079.8 341.482   3
 -10   0  -4 10329.8 288.665   4
 -10   0  -2 9140.53 294.370   3
 -10   0  -2 9327.27 268.955   4
 -10   0   0 5960.64 194.714   4
 -10   0   2 8309.20 237.867   4
  10   0   4 8052.01 245.718   2
 -10   0   4 9198.76 266.093   6
  10   0   6 2824.86 142.374   4
 -10   0   6 3061.14 152.051   6
  10   0   8 3641.11 166.634   4
 -10   0   8 3633.14 167.234   6
 -10   0  10 10164.1 268.339   4
  10   0  10 9498.65 297.904   4
 -10   0  10 9650.05 243.892   2
 -10   0  10 9658.75 349.191   8
  10   0  10 9712.72 201.069   8
  10   0  12 1887.62 124.024   4
 -10   0  12 1956.58 94.7574   2
  10   0  12 1863.70 76.8313   8
 -10   0  12 2038.92 158.935   8
 -10   0  14 1051.66 70.6026   2
  10   0  14 919.900 58.6409   8
 -10   0  14 1061.58 120.479   8
 -10   0  14 801.923 75.6638   5
  10   0  16 4713.25 209.277   4
 -10   0  16 4421.15 154.388   2
  10   0  16 4504.71 150.975   8
 -10   0  18 1662.48 90.7355   2
  10   0  18 1475.94 89.9808   8
 -10   1 -19 1220.12 68.5017   5
 -10  -1 -19 1333.01 70.0676   5
 -10  -1 -17 263.295 35.1394   5
 -10   1 -17 245.637 34.0859   5
 -10  -1 -15 1143.58 88.1530   7
 -10   1 -15 1209.27 92.2702   7
 -10  -1 -15 1157.92 73.9248   5
 -10   1 -15 1029.97 70.0962   5
 -10   1 -13 4329.12 173.983   7
 -10  -1 -13 4114.80 170.759   7
 -10  -1 -13 4018.94 154.310   5
 -10   1 -13 3925.28 145.996   5
 -10   1 -11 1309.89 112.248   4
 -10  -1 -11 1392.97 123.262   4
 -10   1 -11 877.311 74.7569   7
 -10   1 -11 900.426 68.6308   5
 -10  -1 -11 802.908 73.2983   7
 -10   1  -9 1269.76 130.207   3
 -10   1  -9 1360.03 105.951   4
 -10  -1  -9 1274.93 108.904   4
 -10   1  -9 877.752 70.4313   5
 -10   1  -9 1014.33 79.5889   7
 -10  -1  -9 982.263 80.1560   7
 -10  -1  -9 996.998 78.0727   6
 -10   1  -7 9512.49 336.889   3
 -10   1  -7 9500.07 277.428   4
 -10  -1  -7 9291.38 281.669   4
 -10  -1  -7 7018.11 232.776   6
 -10   1  -7 6925.74 219.702   5
 -10   1  -7 7105.90 231.322   7
 -10  -1  -7 6379.41 227.929   7
 -10   1  -5 4348.24 209.797   3
 -10  -1  -5 4575.25 215.040   3
 -10   1  -5 4422.43 175.333   4
 -10  -1  -5 4269.45 178.524   4
 -10  -1  -3 592.779 73.5684   3
 -10   1  -3 559.606 60.4377   4
 -10   1  -3 493.110 68.3358   3
 -10  -1  -3 555.253 61.4285   4
 -10  -1  -3 527.656 63.4179   6
 -10   1  -3 439.644 54.3029   6
 -10   1  -1 8142.58 238.280   4
 -10  -1  -1 8335.80 247.563   4
 -10   1  -1 8386.74 272.890   3
  10   1  -1 8494.37 180.925   8
 -10   1   1 7633.44 228.567   4
 -10  -1   1 7394.87 225.976   4
  10   1   1 8076.34 176.331   8
 -10   1   3 511.494 53.7867   4
 -10  -1   3 560.898 55.5722   4
  10  -1   3 520.712 59.8231   2
  10   1   3 531.396 46.5074   8
 -10  -1   3 520.354 66.5011   6
 -10   1   3 520.505 61.5043   6
 -10  -1   5 3884.33 145.932   4
  10  -1   5 3466.70 151.775   4
 -10   1   5 3849.16 145.476   4
 -10  -1   5 3358.12 168.693   6
 -10   1   5 3364.95 157.341   6
  10  -1   7 6948.51 237.685   4
 -10   1   7 7784.76 225.949   4
  10   1   7 6415.71 236.562   4
 -10  -1   7 8165.43 229.216   4
  10  -1   7 8662.47 154.309   8
 -10  -1   7 6772.19 255.541   6
 -10   1   9 1164.05 81.4538   4
 -10  -1   9 1174.39 79.1850   4
  10  -1   9 1110.14 89.1793   4
  10   1   9 1027.13 90.3932   4
 -10   1   9 1227.11 76.7425   2
  10  -1   9 1272.22 53.8986   8
 -10   1   9 1110.05 104.233   8
  10   1  11 1093.93 96.1978   4
 -10   1  11 1163.60 81.6024   4
  10  -1  11 1176.46 96.2731   4
 -10   1  11 1056.59 72.3466   2
 -10  -1  11 1118.48 68.2490   2
 -10  -1  11 1155.19 121.903   8
  10  -1  11 1186.02 59.8301   8
 -10   1  11 1245.65 118.350   8
 -10   1  11 1036.57 84.4693   5
 -10  -1  11 1001.72 87.8178   6
  10   1  13 4433.40 203.479   4
 -10  -1  13 5057.59 175.741   4
 -10   1  13 4529.52 161.482   2
  10  -1  13 4793.80 144.501   8
 -10   1  13 4714.16 234.323   8
  10   1  13 4389.30 131.225   8
 -10  -1  13 4767.32 258.723   8
 -10   1  13 3939.62 169.931   5
  10  -1  15 1524.29 112.139   4
  10   1  15 1452.99 116.128   4
 -10   1  15 1392.37 84.7303   2
 -10  -1  15 1448.62 78.9680   2
  10   1  15 1336.61 72.7611   8
  10  -1  15 1389.22 79.7936   8
 -10   1  15 1454.59 131.723   8
 -10  -1  15 1461.77 148.710   8
 -10  -1  15 1167.44 90.1249   5
 -10   1  15 1165.74 83.8119   5
  10  -1  17 441.525 64.0658   4
  10   1  17 353.550 62.8542   4
 -10   1  17 381.631 47.3298   2
 -10  -1  17 352.445 41.2683   2
  10   1  17 350.174 42.3855   8
  10  -1  17 345.027 45.8787   8
 -10   1  17 292.581 42.7235   5
 -10  -1  17 258.600 43.5310   5
 -10  -1  19 1036.80 72.9162   5
 -10   1  19 1051.21 72.0029   5
 -10  -2 -18 52.6080 20.1705   5
 -10   2 -18 69.0539 22.8308   5
 -10   2 -16 775.594 75.4176   7
 -10  -2 -16 717.325 59.1335   5
 -10   2 -16 754.342 58.7214   5
 -10  -2 -14 289.975 46.6167   7
 -10   2 -14 248.582 43.3074   7
 -10  -2 -14 229.438 37.7789   5
 -10   2 -14 261.870 37.8766   5
 -10   2 -12 404.644 52.9022   7
 -10   2 -12 422.108 46.0308   5
 -10  -2 -12 468.102 57.2780   7
 -10   2 -10 1487.92 144.503   3
 -10   2 -10 1465.30 111.201   4
 -10  -2 -10 1632.51 131.583   4
 -10   2 -10 1143.35 84.5654   7
 -10  -2 -10 1027.81 81.4455   7
 -10   2  -8 1028.66 113.817   3
 -10  -2  -8 1058.08 96.7444   4
 -10   2  -8 1089.91 89.3881   4
 -10  -2  -8 772.401 74.0349   6
 -10   2  -8 731.748 64.5763   5
 -10   2  -8 809.788 70.0244   7
 -10  -2  -8 759.951 71.6495   7
 -10   2  -6 2718.14 171.348   3
 -10   2  -6 2631.57 133.851   4
 -10  -2  -6 2569.36 139.988   4
 -10  -2  -6 2156.66 127.981   6
 -10   2  -6 1938.89 107.773   5
 -10   2  -6 1960.22 112.002   7
 -10  -2  -6 2004.53 118.860   7
 -10   2  -4 768.711 86.7478   3
 -10   2  -4 845.432 72.9211   4
 -10  -2  -4 880.417 78.4231   4
  10   2  -4 783.646 49.0809   2
  10   2  -4 775.426 55.8712   8
 -10  -2  -4 640.953 71.3933   6
 -10   2  -4 587.121 59.2483   5
 -10   2  -2 1173.35 81.6524   4
 -10   2  -2 1118.30 96.3834   3
 -10  -2  -2 991.911 80.4550   4
  10   2  -2 1286.92 68.8041   8
 -10   2   0 4281.03 159.137   4
 -10  -2   0 4237.03 164.672   4
  10   2   0 3934.57 139.503   8
 -10  -2   0 4193.61 172.762   3
 -10   2   2 956.913 72.5373   4
 -10  -2   2 919.986 71.6365   4
 -10  -2   2 954.811 75.7545   3
  10  -2   2 790.414 70.6182   2
  10   2   2 810.808 70.5383   8
  10  -2   4 639.264 69.0934   2
 -10  -2   4 869.666 68.4083   4
  10  -2   4 730.344 66.1880   4
 -10   2   4 856.752 67.4222   4
 -10  -2   4 665.874 79.4529   6
 -10   2   4 740.149 68.7989   5
  10  -2   6 1810.11 120.600   2
 -10  -2   6 2256.98 109.590   4
  10  -2   6 1994.13 112.914   4
 -10   2   6 2229.31 108.384   4
  10   2   6 1691.17 112.006   4
 -10   2   6 1817.56 109.985   5
 -10  -2   6 1979.99 133.430   6
 -10   2   8 795.967 67.4903   4
  10  -2   8 717.753 70.3215   4
 -10  -2   8 763.264 64.8982   4
  10   2   8 672.688 73.4742   4
 -10   2   8 747.949 62.1426   2
  10  -2   8 835.216 43.3101   8
 -10   2   8 737.815 80.1002   8
 -10  -2   8 620.190 76.1279   6
 -10   2   8 701.021 68.8628   5
  10   2  10 1160.88 100.099   4
 -10   2  10 1434.86 90.1710   4
  10  -2  10 1398.76 98.7253   4
 -10   2  10 1309.18 82.4080   2
  10  -2  10 1541.20 70.4198   8
 -10   2  10 1311.06 110.555   8
 -10   2  10 1196.53 90.8461   5
  10   2  12 404.788 63.7080   4
 -10  -2  12 497.067 53.0971   4
 -10   2  12 430.086 49.0732   2
 -10  -2  12 408.199 83.3662   8
  10  -2  12 563.626 49.1468   8
 -10   2  12 456.702 69.6620   8
 -10  -2  12 386.862 57.7884   6
 -10   2  12 398.117 52.8761   5
  10   2  14 287.909 56.3848   4
 -10  -2  14 272.492 42.6003   4
  10  -2  14 313.354 53.5203   4
 -10   2  14 234.686 39.0525   2
 -10  -2  14 238.526 32.1032   2
 -10   2  14 225.498 54.9103   8
 -10  -2  14 247.249 71.6916   8
  10  -2  14 303.931 43.0607   8
 -10   2  14 221.457 39.6239   5
 -10  -2  14 199.031 42.0201   6
  10   2  16 904.485 96.2328   4
  10  -2  16 1078.40 94.5439   4
 -10   2  16 945.909 73.4409   2
 -10  -2  16 992.955 61.7999   2
  10  -2  16 1015.83 76.7497   8
  10   2  16 925.997 61.5943   8
 -10   2  16 862.184 73.2334   5
 -10  -2  16 694.015 70.7935   5
  10  -2  18 76.0114 37.8323   4
 -10  -2  18 38.7511 26.6288   5
  10  -2  18 58.7659 32.5690   8
 -10   2  18 54.3111 24.2773   5
 -10   3 -19 321.039 37.9597   5
 -10  -3 -17 177.730 41.5382   7
 -10  -3 -17 176.054 31.6204   5
 -10   3 -17 172.435 30.3681   5
  10   3 -15 291.161 38.3070   1
 -10   3 -15 181.497 41.5565   7
 -10  -3 -15 187.417 34.4670   5
 -10   3 -15 190.258 33.2814   5
 -10   3 -13 1071.48 103.896   4
  10   3 -13 1078.09 62.4768   1
 -10   3 -13 711.636 68.4189   7
 -10  -3 -13 745.510 71.6768   7
 -10   3 -13 679.121 59.0042   5
  10  -3 -11 58.1018 29.8230   1
 -10  -3 -11 44.5478 27.2334   6
 -10   3 -11 57.7822 22.5965   5
 -10   3 -11 32.0285 23.2390   7
 -10  -3 -11 21.7766 21.8424   7
 -10   3  -9 80.6152 48.4251   3
 -10  -3  -9 29.3638 32.2583   4
 -10   3  -9 36.3193 28.7870   4
 -10   3  -9 36.0584 22.4790   7
 -10   3  -9 43.6807 20.2555   5
 -10  -3  -9 18.8433 21.9876   7
 -10  -3  -7 814.048 86.1909   4
 -10   3  -7 832.232 75.0499   4
 -10   3  -7 860.595 100.412   3
  10   3  -7 736.030 62.2749   8
 -10  -3  -7 631.604 73.0887   6
 -10   3  -7 617.848 60.3590   7
 -10  -3  -7 602.218 65.5077   7
 -10   3  -7 547.757 55.6964   5
 -10  -3  -5 134.427 38.7631   4
 -10   3  -5 127.483 30.2255   5
 -10   3  -5 140.285 34.6206   4
 -10   3  -5 192.989 49.9421   3
  10   3  -5 168.336 32.1051   8
 -10  -3  -5 91.0497 35.1143   6
 -10   3  -5 121.892 31.5825   7
 -10   3  -3 222.282 39.0847   4
 -10  -3  -3 223.182 42.8641   4
  10   3  -3 173.647 24.8539   2
 -10   3  -3 163.924 44.4589   3
  10  -3  -3 179.613 31.8977   2
  10   3  -3 194.603 34.1074   8
 -10  -3  -3 129.888 40.0143   6
 -10   3  -3 165.458 33.5559   5
 -10   3  -3 138.740 32.5779   7
 -10   3  -1 330.485 44.7994   4
 -10  -3  -1 244.620 43.3168   4
  10   3  -1 243.529 39.8117   4
  10   3  -1 228.761 38.2604   8
  10  -3  -1 275.172 39.7441   2
 -10   3   1 241.833 38.3833   4
 -10  -3   1 232.207 41.1388   4
  10  -3   1 209.012 37.8450   2
 -10  -3   1 207.313 40.0454   3
  10   3   1 183.339 40.8524   8
  10  -3   3 153.568 35.6992   2
 -10  -3   3 203.964 36.6389   4
  10  -3   3 183.377 34.3208   4
 -10  -3   3 216.817 36.5380   3
 -10   3   3 194.701 36.5366   4
 -10   3   3 163.837 35.4156   5
 -10  -3   3 155.784 46.4848   6
 -10  -3   5 111.989 26.1920   3
  10  -3   5 55.5748 29.0850   2
 -10   3   5 72.3514 26.6053   4
 -10  -3   5 61.3667 24.1823   4
 -10   3   5 69.1750 28.1527   5
  10  -3   5 71.0153 25.4546   4
 -10  -3   5 55.1730 33.8394   6
 -10  -3   7 708.634 61.1500   4
  10  -3   7 700.611 66.3098   4
 -10   3   7 674.537 61.9054   4
  10   3   7 488.448 63.9151   4
 -10   3   7 676.363 61.1534   2
  10  -3   7 596.486 72.0738   2
 -10   3   7 682.613 70.4258   8
 -10  -3   7 478.244 71.8939   6
 -10   3   7 584.869 62.3586   5
  10   3   9 53.1510 29.4192   4
 -10   3   9 23.4125 21.7267   4
  10  -3   9 17.7821 22.6269   4
 -10   3   9 50.6728 23.6408   2
  10  -3   9 52.3541 32.6798   2
 -10   3   9 28.3816 27.8235   8
 -10  -3  11 37.1246 23.7706   4
  10   3  11 27.8202 29.7502   4
 -10   3  11 15.5488 19.5289   2
  10  -3  11 15.0329 21.4957   8
 -10   3  11 17.3537 25.2854   8
 -10   3  11 22.1460 21.7974   5
  10   3  13 821.932 90.3804   4
 -10  -3  13 1000.45 74.0948   4
  10  -3  13 999.257 84.4710   4
 -10   3  13 915.196 72.1861   2
 -10   3  13 1007.60 94.3121   8
  10  -3  13 1117.89 79.6398   8
 -10  -3  13 793.825 85.3893   6
 -10   3  13 747.566 69.6996   5
  10   3  15 180.997 49.7953   4
  10  -3  15 242.608 46.9214   4
 -10   3  15 214.215 39.9296   2
 -10  -3  15 226.980 28.8637   2
  10  -3  15 243.599 45.0811   8
 -10   3  15 192.673 49.7030   8
 -10   3  15 214.616 39.8351   5
 -10  -3  15 261.516 48.5464   6
 -10  -3  17 138.127 37.4803   5
  10  -3  17 222.741 46.1406   4
 -10  -3  17 218.416 28.7632   2
  10  -3  17 219.345 46.9855   8
 -10   3  17 183.837 35.3918   5
 -10  -4 -18 241.180 35.0067   5
 -10   4 -18 265.241 35.7512   5
 -10  -4 -16 933.304 81.1020   7
 -10   4 -16 960.604 66.9500   5
 -10  -4 -16 941.001 69.5821   5
 -10   4 -14 673.972 69.0572   7
 -10   4 -14 739.943 60.7968   5
 -10  -4 -14 721.694 66.6082   6
 -10   4 -12 1526.21 99.0008   7
 -10  -4 -12 1555.31 105.976   6
 -10  -4 -12 1544.70 104.396   7
 -10   4 -12 1557.29 89.7530   5
 -10  -4 -10 1778.73 146.153   4
  10  -4 -10 2078.51 118.392   1
 -10   4 -10 1184.81 85.5802   7
 -10  -4 -10 1267.43 96.2202   7
 -10  -4  -8 1908.56 139.260   4
 -10   4  -8 1834.48 111.400   4
 -10   4  -8 1924.61 153.856   3
  10  -4  -8 2254.26 144.964   1
  10   4  -8 1646.00 103.948   8
 -10  -4  -8 1279.24 105.446   6
 -10   4  -8 1346.27 84.3069   5
 -10   4  -8 1456.74 93.1158   7
 -10  -4  -8 1386.29 101.846   7
 -10  -4  -6 6721.74 247.585   4
 -10   4  -6 6743.44 274.534   3
 -10   4  -6 6447.20 208.968   4
  10   4  -6 5805.83 201.311   8
 -10  -4  -6 4806.72 221.002   6
 -10   4  -6 4811.25 173.106   5
 -10   4  -6 4980.50 181.679   7
 -10   4  -4 872.622 71.3024   4
 -10   4  -4 746.763 86.3566   3
 -10  -4  -4 756.686 76.1525   4
  10   4  -4 781.945 43.7583   2
  10   4  -4 693.327 68.2389   8
 -10  -4  -4 601.807 80.0430   6
 -10   4  -4 664.816 62.6089   7
 -10   4  -4 668.084 60.6999   5
 -10   4  -2 1199.79 82.0829   4
  10   4  -2 1202.75 80.7257   4
 -10  -4  -2 1262.77 93.7881   4
  10   4  -2 1231.18 64.8516   2
  10  -4  -2 1213.35 79.5364   2
  10   4  -2 915.558 80.9592   8
 -10   4  -2 1079.35 78.3474   5
 -10  -4  -2 979.630 103.690   6
 -10   4  -2 974.123 76.7039   7
 -10   4   0 8647.83 240.866   4
 -10  -4   0 8507.30 252.948   4
  10   4   0 7898.51 238.875   4
  10  -4   0 7678.48 234.572   2
  10   4   0 8474.88 219.607   2
 -10  -4   0 8352.85 252.017   3
  10   4   0 7116.03 270.304   8
 -10   4   0 7093.69 233.051   7
 -10  -4   2 1491.94 94.4501   4
  10   4   2 1194.30 87.1330   4
 -10   4   2 1515.85 90.5286   4
  10  -4   2 1103.83 84.7742   2
 -10  -4   2 1276.95 83.2561   3
  10   4   2 1137.53 107.899   8
 -10   4   2 1222.62 86.7708   5
  10  -4   4 504.843 62.1136   2
 -10  -4   4 637.312 54.3619   3
 -10  -4   4 749.913 65.0900   4
  10  -4   4 653.930 60.8134   4
 -10   4   4 776.222 63.8417   4
  10   4   4 524.247 61.8819   4
 -10   4   4 596.310 61.2033   5
 -10  -4   4 520.285 80.7327   6
  10  -4   6 5459.23 187.561   4
 -10   4   6 5859.13 189.479   4
 -10  -4   6 5627.81 160.954   3
  10   4   6 4495.82 197.463   4
  10  -4   6 4744.38 203.215   2
 -10   4   6 5012.09 177.332   8
 -10  -4   6 4252.80 225.108   6
 -10   4   6 5250.71 190.427   5
  10   4   8 1191.09 102.082   4
 -10  -4   8 1811.98 79.5358   3
  10  -4   8 2002.02 110.733   4
 -10   4   8 1851.05 102.298   4
 -10   4   8 1905.77 104.462   2
  10  -4   8 1724.00 122.043   2
 -10   4   8 1692.21 103.577   8
 -10  -4   8 1435.05 126.818   6
 -10   4   8 1550.36 98.0662   5
 -10   4  10 1436.34 91.8967   4
 -10  -4  10 1468.13 87.3371   4
 -10   4  10 1377.02 89.4241   2
  10  -4  10 1369.71 112.864   2
 -10   4  10 1369.49 95.5024   8
 -10   4  10 1203.69 87.5063   5
  10   4  12 1501.88 122.286   4
  10  -4  12 2151.84 119.113   4
 -10  -4  12 1945.66 103.171   4
 -10   4  12 1934.23 107.787   2
 -10   4  12 2073.02 122.043   8
  10  -4  12 2266.06 123.295   8
 -10   4  12 1711.49 105.517   5
 -10  -4  12 1511.75 122.972   6
  10   4  14 787.740 91.9330   4
  10  -4  14 988.962 82.5249   4
 -10  -4  14 900.465 69.7477   4
 -10   4  14 987.504 79.0332   2
 -10   4  14 974.193 87.5602   8
  10  -4  14 1125.77 94.6036   8
 -10  -4  14 690.294 81.0535   6
 -10   4  14 799.726 71.3680   5
  10  -4  16 1312.36 95.1992   4
  10  -4  16 1414.87 112.256   8
 -10   4  16 973.626 75.8966   5
 -10  -4  16 836.363 82.4406   6
  10  -4  18 348.855 52.6680   4
 -10   4  18 228.736 38.1476   5
 -10  -5 -17 1401.17 101.463   7
 -10  -5 -17 1372.01 84.6152   5
 -10   5 -17 1503.11 83.7761   5
 -10  -5 -15 1034.18 85.2899   7
  10  -5 -15 1075.13 123.551   9
  10   5 -15 1070.08 110.768   9
 -10   5 -15 1009.74 69.8284   5
 -10  -5 -15 959.535 77.5064   6
 -10   5 -13 656.770 78.7616   4
  10   5 -13 625.732 53.9385   1
 -10   5 -13 450.050 56.2536   7
 -10  -5 -13 410.289 57.0368   6
 -10   5 -13 417.304 48.0132   5
  10  -5 -11 1469.04 77.0922   1
 -10   5 -11 1219.02 87.1531   7
 -10  -5 -11 1196.25 99.7386   6
 -10   5 -11 1170.89 78.4535   5
 -10  -5 -11 1349.60 97.0967   7
 -10  -5  -9 1704.24 143.401   4
  10  -5  -9 1828.34 113.504   1
 -10   5  -9 1810.18 153.882   3
  10   5  -9 1411.11 103.134   8
 -10   5  -9 1319.44 88.2436   7
 -10  -5  -9 1220.96 94.3976   7
 -10   5  -9 1216.22 81.4911   5
 -10  -5  -7 851.073 93.4203   4
 -10   5  -7 827.697 74.0622   4
 -10   5  -7 828.421 99.2382   3
  10   5  -7 601.020 69.7482   8
 -10   5  -7 562.888 57.7650   5
 -10  -5  -7 505.553 76.1995   6
 -10   5  -7 595.492 59.5826   7
 -10  -5  -5 1506.06 113.558   4
 -10   5  -5 1482.26 94.5390   4
 -10   5  -5 1408.16 120.169   3
  10   5  -5 954.342 86.9571   8
 -10   5  -5 1116.41 77.4631   5
 -10  -5  -5 928.479 105.224   6
 -10   5  -5 989.127 75.8599   7
 -10   5  -3 1614.72 93.9489   4
  10   5  -3 1575.44 91.0069   4
 -10  -5  -3 1659.92 111.788   4
  10   5  -3 1576.66 64.5600   2
  10  -5  -3 1432.16 88.5244   2
  10   5  -3 1291.22 103.966   8
 -10   5  -3 1233.50 83.2769   5
  10  -5  -3 1601.90 144.834   6
 -10  -5  -3 1212.97 119.196   6
 -10   5  -3 1334.98 88.4788   7
 -10   5  -1 960.681 72.3159   4
  10   5  -1 870.568 72.0362   4
 -10  -5  -1 1051.97 86.3115   4
  10   5  -1 1048.72 62.0000   2
  10  -5  -1 847.385 69.7169   2
  10   5  -1 790.901 90.4756   8
 -10   5  -1 856.938 70.6813   7
 -10  -5   1 830.119 72.7288   4
  10   5   1 771.665 69.8648   4
 -10   5   1 950.265 72.3626   4
  10  -5   1 670.545 65.7744   2
  10   5   1 776.503 97.6150   8
  10  -5   1 979.747 114.411   6
 -10   5   1 690.447 65.2709   7
  10  -5   3 1175.70 90.9619   2
 -10  -5   3 1350.72 78.4217   3
 -10  -5   3 1658.43 99.3647   4
 -10   5   3 1633.27 93.4865   4
  10   5   3 1307.98 96.1653   4
  10  -5   3 1919.44 159.787   6
 -10   5   3 1278.19 87.7760   5
 -10   5   5 1481.03 90.4435   4
  10   5   5 1074.43 92.2989   4
  10  -5   5 1183.58 96.3895   2
 -10   5   5 1352.13 90.8164   2
 -10  -5   5 1248.84 68.6211   3
 -10   5   5 1229.37 72.5913   8
 -10   5   5 1260.80 86.6999   5
 -10  -5   5 1084.94 118.988   6
  10   5   7 487.433 66.5285   4
 -10  -5   7 780.205 65.1369   4
  10  -5   7 732.092 64.9602   4
 -10   5   7 739.430 66.4028   4
  10  -5   7 598.740 72.5041   2
 -10  -5   7 604.011 42.9100   3
 -10   5   7 692.367 58.5156   8
 -10   5   7 669.369 64.1901   5
 -10  -5   7 526.736 87.8154   6
 -10  -5   9 1714.70 93.4189   4
 -10   5   9 1496.22 94.4444   4
  10  -5   9 1428.08 132.207   1
 -10   5   9 1579.30 97.9356   2
 -10  -5   9 1356.78 57.8057   3
  10  -5   9 1376.01 114.089   2
 -10   5   9 1455.54 89.9898   8
 -10  -5  11 1461.21 86.2266   4
  10   5  11 981.510 100.422   4
 -10  -5  11 1356.49 52.8625   3
  10  -5  11 1605.73 99.2881   4
 -10   5  11 1665.78 101.144   2
  10  -5  11 1392.43 115.707   2
 -10   5  11 1632.78 100.572   8
 -10  -5  11 1095.86 113.656   6
 -10   5  11 1477.38 99.0267   5
  10   5  13 366.593 66.4286   4
  10  -5  13 587.110 63.3210   4
 -10  -5  13 521.018 53.8111   4
 -10   5  13 581.571 63.3094   2
  10  -5  13 590.166 80.5721   2
 -10   5  13 595.240 66.0583   8
 -10  -5  13 418.738 69.6133   6
 -10   5  13 544.896 60.5777   5
  10  -5  15 1198.64 89.0661   4
 -10  -5  15 1163.77 78.4124   4
  10  -5  15 1477.87 121.164   8
 -10   5  15 1227.13 99.6972   8
 -10  -5  15 856.545 92.7493   6
 -10   5  15 1116.15 84.0975   5
 -10  -5  17 1201.38 100.325   6
 -10   5  17 1477.77 91.9720   5
  10  -5  19 82.9131 32.4389   4
 -10  -6 -18 395.374 46.2933   5
 -10   6 -18 455.377 47.5992   5
 -10  -6 -16 1286.30 97.2107   7
 -10  -6 -16 1248.50 87.9968   6
 -10   6 -16 1278.62 79.9987   5
 -10   6 -14 2153.36 124.750   7
 -10   6 -14 2143.12 107.629   5
 -10  -6 -14 1873.86 121.995   6
 -10  -6 -14 2191.75 125.980   7
  10  -6 -12 3388.64 86.3893   1
 -10   6 -12 3096.70 146.610   7
 -10  -6 -12 2890.11 162.742   6
 -10   6 -12 3110.45 132.585   5
  10  -6 -10 965.453 70.2248   1
 -10   6 -10 819.133 70.2859   7
  10   6 -10 931.303 89.2394   8
 -10  -6 -10 812.187 77.7599   7
 -10  -6  -8 5217.12 247.151   4
  10  -6  -8 5282.16 196.778   1
 -10   6  -8 5613.35 258.784   3
  10   6  -8 3914.57 187.790   8
 -10   6  -8 3706.69 153.443   7
 -10  -6  -8 3598.81 204.514   6
 -10   6  -8 3754.87 149.649   5
 -10  -6  -8 3405.05 166.276   7
 -10   6  -6 12544.6 388.813   3
 -10  -6  -6 11958.4 365.998   4
  10   6  -6 8321.82 300.682   8
  10  -6  -6 12243.1 410.903   6
 -10   6  -6 9500.74 264.991   7
 -10   6  -6 9553.14 267.816   5
 -10  -6  -4 967.125 90.7951   4
 -10   6  -4 883.486 70.4875   4
  10   6  -4 849.136 38.9504   2
  10   6  -4 653.670 79.3746   8
  10  -6  -4 1052.66 118.130   6
 -10   6  -4 664.865 61.9150   7
 -10   6  -4 727.380 65.8761   5
 -10   6  -2 3247.88 135.540   4
  10   6  -2 3180.13 134.131   4
 -10  -6  -2 3259.32 157.234   4
  10   6  -2 3205.89 98.8938   2
  10  -6  -2 2960.04 135.573   2
  10   6  -2 2510.20 169.405   8
 -10   6  -2 2652.33 129.740   5
  10  -6  -2 3597.15 208.915   6
 -10   6  -2 2645.59 124.941   7
  10   6   0 16651.3 394.422   4
 -10  -6   0 17940.7 418.909   4
 -10   6   0 18175.1 385.958   4
  10  -6   0 21319.9 538.902   1
  10   6   0 17346.6 353.755   2
  10  -6   0 15085.7 382.068   2
  10   6   0 14391.6 480.233   8
  10  -6   0 19550.0 536.755   6
 -10   6   0 14400.8 364.088   7
  10  -6   2 2265.03 127.438   2
  10  -6   2 3419.80 201.088   1
 -10  -6   2 3036.87 140.238   4
  10   6   2 2555.41 132.971   4
 -10   6   2 3035.56 129.373   4
 -10   6   2 2517.56 126.055   5
  10  -6   2 3472.50 207.638   6
 -10   6   4 971.470 73.7184   4
  10   6   4 803.719 79.7686   4
  10  -6   4 657.196 69.5541   2
  10  -6   4 973.184 108.226   1
 -10   6   4 939.686 77.5675   2
 -10   6   4 778.869 43.7018   8
 -10   6   4 769.674 69.8449   5
  10  -6   4 966.002 113.160   6
  10   6   6 9037.76 304.138   4
 -10  -6   6 11110.2 281.218   4
 -10   6   6 11074.1 283.171   4
  10  -6   6 12787.1 412.329   1
  10  -6   6 9431.07 308.013   2
 -10   6   6 11103.3 295.388   2
 -10   6   6 9763.36 238.753   8
  10  -6   6 13741.4 444.772   6
 -10   6   6 9807.85 287.053   5
  10   6   8 3460.67 182.735   4
 -10  -6   8 4530.52 161.804   4
 -10   6   8 4496.02 169.991   4
  10  -6   8 4091.71 193.118   2
  10  -6   8 5071.35 253.475   1
 -10   6   8 4140.55 146.618   8
 -10  -6  10 1236.53 78.9147   4
  10   6  10 709.302 86.9086   4
  10  -6  10 1134.97 80.3713   4
 -10   6  10 1026.10 83.2240   2
  10  -6  10 977.830 95.5014   2
 -10   6  10 1044.41 75.1931   8
 -10  -6  10 738.634 102.078   6
 -10   6  10 910.427 78.2058   5
 -10  -6  12 3851.66 142.296   4
  10   6  12 2463.52 165.692   4
  10  -6  12 3938.42 155.675   4
  10  -6  12 3673.37 189.885   2
 -10   6  12 3575.47 150.323   8
 -10  -6  12 2250.24 170.758   6
 -10   6  12 3255.18 149.958   5
 -10  -6  14 2440.59 110.987   4
  10   6  14 1923.70 147.685   4
  10   6  14 2137.40 178.516   3
  10  -6  14 2651.71 126.494   4
  10  -6  14 2512.93 160.092   2
 -10   6  14 2437.24 132.719   8
 -10  -6  14 1706.15 139.449   6
 -10   6  14 2296.51 122.169   5
 -10  -6  16 1618.63 89.2471   4
  10  -6  16 1729.26 102.482   4
 -10   6  16 1453.81 93.8862   5
 -10  -6  18 263.331 52.5784   6
 -10   6  18 360.326 46.7146   5
 -10  -7 -17 1056.08 86.9052   7
 -10  -7 -17 1063.10 81.9021   6
 -10   7 -17 1055.05 74.9099   5
 -10  -7 -15 1021.09 84.7481   7
 -10  -7 -15 943.815 86.8443   6
 -10   7 -15 941.304 70.7222   5
 -10   7 -13 1923.87 115.993   7
 -10   7 -13 1802.38 100.353   5
 -10  -7 -13 1598.29 123.838   6
 -10  -7 -13 1828.67 115.961   7
 -10   7 -11 1783.49 111.415   4
  10  -7 -11 1970.20 89.1812   1
  10   7 -11 1307.68 113.097   8
 -10   7 -11 1346.32 94.5905   7
 -10   7 -11 1303.61 85.4453   5
 -10  -7 -11 1117.02 111.242   6
 -10   7  -9 1534.96 99.6807   4
  10  -7  -9 1525.17 93.2319   1
  10   7  -9 1097.49 105.025   8
 -10   7  -9 1150.11 82.6672   7
 -10   7  -9 1198.87 82.7385   5
 -10   7  -7 4477.10 166.427   4
 -10  -7  -7 4504.21 229.304   4
 -10   7  -7 4618.71 233.510   3
  10   7  -7 3214.79 183.498   8
 -10   7  -7 3484.14 147.328   7
  10  -7  -7 4402.56 238.893   6
 -10   7  -7 3348.18 146.359   5
 -10  -7  -5 2874.63 168.534   4
 -10   7  -5 2160.14 110.363   7
  10   7  -5 2022.10 146.265   8
  10  -7  -5 2662.38 180.751   6
 -10   7  -5 2005.32 109.530   5
 -10  -7  -3 954.627 90.3627   4
 -10   7  -3 716.755 63.4144   4
  10   7  -3 701.300 61.0861   4
  10  -7  -3 1024.19 106.297   1
  10   7  -3 794.237 38.6184   2
  10   7  -3 579.221 84.9024   8
  10  -7  -3 811.777 101.638   6
 -10   7  -3 610.958 58.1262   7
 -10   7  -3 618.158 61.0982   5
 -10   7  -1 5133.76 171.248   4
  10   7  -1 4628.48 170.322   4
 -10  -7  -1 4897.46 195.828   4
  10   7  -1 4583.15 137.377   2
  10  -7  -1 4295.83 172.491   2
  10   7  -1 4003.50 240.601   8
  10  -7  -1 5308.57 254.758   6
 -10   7  -1 3972.24 164.451   5
  10   7   1 4372.16 174.811   4
 -10   7   1 4766.19 166.534   4
  10  -7   1 3984.25 170.333   2
  10  -7   1 4850.25 234.317   1
  10   7   1 4079.36 240.569   8
  10  -7   1 5313.76 256.997   6
 -10   7   1 3930.14 163.314   5
  10  -7   3 516.914 62.5468   2
  10  -7   3 905.672 101.522   1
 -10   7   3 773.390 66.6406   4
  10   7   3 721.935 74.0427   4
  10  -7   3 907.488 106.718   6
 -10   7   3 662.035 65.6662   5
 -10   7   3 656.369 61.9307   7
  10   7   5 2144.83 132.728   4
 -10  -7   5 2668.78 124.634   4
 -10   7   5 2619.71 123.268   4
  10  -7   5 2140.40 130.227   2
  10  -7   5 2818.10 178.563   1
 -10   7   5 2653.76 133.266   2
 -10   7   5 2302.61 85.0628   8
  10  -7   5 2917.59 192.577   6
 -10   7   5 2400.02 125.987   5
 -10   7   5 2426.39 119.451   7
  10   7   7 3096.56 171.438   4
 -10  -7   7 4141.09 156.136   4
  10  -7   7 3936.75 214.879   1
  10  -7   7 3602.36 177.025   2
 -10   7   7 4204.90 170.656   2
 -10   7   7 3701.79 125.107   8
  10  -7   7 4821.59 253.513   6
 -10   7   7 3602.49 159.123   5
  10   7   9 1147.84 105.490   4
 -10  -7   9 1593.97 91.5729   4
  10  -7   9 1476.35 114.908   2
 -10   7   9 1357.66 78.3725   8
  10  -7   9 1809.58 160.754   6
 -10  -7  11 1600.60 89.2790   4
  10   7  11 1070.02 108.889   4
  10  -7  11 1776.48 97.9927   4
  10  -7  11 1547.25 120.917   2
 -10   7  11 1554.64 90.5311   8
 -10   7  11 1442.34 99.3032   5
  10  -7  11 1891.38 166.543   6
 -10  -7  11 921.543 117.894   6
 -10  -7  13 2048.69 100.325   4
  10   7  13 1371.01 124.907   4
  10   7  13 1533.97 152.101   3
  10  -7  13 2163.04 109.403   4
  10  -7  13 2020.74 142.654   2
 -10   7  13 1923.79 109.040   8
 -10   7  13 1885.85 112.414   5
 -10  -7  13 1192.34 129.469   6
 -10  -7  15 1142.13 74.7734   4
  10  -7  15 1295.15 86.2491   4
 -10   7  15 1112.87 89.5344   8
 -10   7  15 1083.50 83.3749   5
 -10  -7  17 1259.97 76.5145   4
  10  -7  17 1305.29 85.2749   4
 -10  -7  17 795.907 91.7691   6
 -10   7  17 983.297 76.5926   5
  10  -7  19 523.192 56.0479   4
 -10   8 -18 374.173 47.7278   5
 -10  -8 -16 1437.37 102.579   7
 -10  -8 -16 1328.53 102.905   6
 -10   8 -16 1534.34 92.5164   5
 -10   8 -14 605.482 74.7397   4
  10  -8 -14 491.705 85.5682   9
  10   8 -14 424.250 69.2158   9
 -10  -8 -14 379.742 63.7663   6
 -10  -8 -14 429.166 58.0703   7
 -10   8 -14 410.559 48.8451   5
 -10   8 -12 583.349 66.4929   4
 -10   8 -12 522.212 60.4576   7
  10   8 -12 464.881 73.0789   8
 -10  -8 -12 471.645 76.1687   6
 -10  -8 -12 472.087 60.6325   7
 -10   8 -12 493.811 55.6929   5
 -10   8 -10 2980.22 136.802   4
  10   8 -10 2254.91 156.996   8
 -10   8 -10 2423.61 126.156   7
  10  -8 -10 3307.69 208.784   6
 -10  -8 -10 2238.49 133.825   7
  10   8  -8 1295.93 118.888   8
 -10   8  -8 1424.97 92.2945   7
 -10   8  -8 1357.37 89.1427   5
 -10   8  -6 1699.01 99.2674   4
 -10  -8  -6 1754.29 141.399   4
  10   8  -6 1427.79 127.287   8
 -10   8  -6 1361.15 88.7670   7
  10  -8  -6 1619.47 143.649   6
 -10   8  -6 1324.68 89.5163   5
 -10  -8  -4 2718.92 162.857   4
  10  -8  -4 2496.72 150.136   1
  10   8  -4 1760.26 150.450   8
 -10   8  -4 1731.42 98.9211   7
  10  -8  -4 2635.09 180.020   6
 -10   8  -4 1928.75 110.395   5
 -10   8  -2 2500.28 117.520   4
 -10  -8  -2 2527.11 147.410   4
  10   8  -2 2402.64 76.5456   2
  10  -8  -2 2804.43 170.063   1
  10   8  -2 1956.30 172.219   8
  10  -8  -2 2846.50 182.390   6
 -10   8  -2 2141.69 116.608   5
  10   8   0 3073.70 140.072   4
 -10   8   0 3297.59 136.441   4
  10   8   0 3188.76 113.744   2
  10  -8   0 2619.65 137.007   2
  10   8   0 2689.17 206.316   8
  10  -8   0 3400.19 201.753   6
 -10   8   0 2545.78 129.326   5
 -10   8   0 2624.68 119.594   7
  10  -8   2 1798.76 115.368   2
  10  -8   2 2623.70 175.352   1
 -10   8   2 2216.63 110.558   4
 -10  -8   2 2241.81 123.543   4
  10   8   2 2025.50 119.167   4
  10  -8   2 2396.91 171.286   6
 -10   8   2 1862.88 110.413   5
 -10   8   2 1872.11 100.470   7
  10   8   4 2216.36 131.374   4
 -10  -8   4 2429.64 123.129   4
 -10   8   4 2456.34 119.298   4
  10  -8   4 1764.12 120.265   2
 -10   8   4 2442.97 130.074   2
  10  -8   4 2516.71 174.393   1
 -10   8   4 1969.60 66.5446   8
  10  -8   4 2772.20 183.917   6
 -10   8   4 2212.68 121.781   5
 -10   8   4 2066.80 105.447   7
  10   8   6 1387.85 110.223   4
 -10  -8   6 1605.25 95.7595   4
 -10   8   6 1612.00 98.1472   4
  10  -8   6 1350.65 104.009   2
 -10   8   6 1678.29 107.009   2
  10  -8   6 1594.94 137.355   1
 -10   8   6 1417.92 66.5318   8
  10  -8   6 1837.75 152.570   6
 -10   8   6 1305.68 95.7909   5
 -10   8   6 1400.35 86.7092   7
  10   8   8 1256.20 111.746   4
 -10  -8   8 1715.57 95.7262   4
  10  -8   8 1414.13 110.866   2
 -10   8   8 1639.42 106.271   2
 -10   8   8 1432.53 75.0803   8
 -10   8   8 1469.97 89.0822   7
  10   8  10 2030.09 147.468   4
 -10  -8  10 2895.46 124.772   4
  10  -8  10 2986.56 168.396   2
 -10   8  10 2712.26 115.316   8
 -10   8  10 2740.45 139.249   5
  10  -8  10 3654.38 225.814   6
  10   8  12 323.764 65.4010   4
 -10  -8  12 497.178 51.0071   4
  10  -8  12 527.355 73.6671   2
 -10   8  12 480.689 52.9741   8
 -10   8  12 506.767 60.4530   5
 -10  -8  14 430.829 46.5328   4
  10  -8  14 506.025 52.3974   4
 -10   8  14 416.990 53.8147   8
 -10   8  14 366.451 52.8305   5
 -10  -8  16 1795.76 90.2926   4
  10  -8  16 1769.90 94.9556   4
 -10   8  16 1566.70 100.192   5
  10   9 -17 55.3288 43.1702   1
 -10  -9 -17 65.9442 32.8026   6
 -10  -9 -17 47.7519 28.2902   7
 -10   9 -17 72.6866 29.0740   5
 -10   9 -15 350.563 61.2320   4
 -10  -9 -15 260.809 45.8821   7
 -10  -9 -15 265.457 57.8675   6
 -10   9 -15 268.104 42.6742   5
  10   9 -13 1730.26 140.071   8
 -10  -9 -13 1473.89 135.059   6
 -10  -9 -13 1567.13 107.583   7
 -10   9 -13 1507.66 95.7584   5
  10   9 -11 702.228 91.8270   8
 -10   9 -11 759.423 71.6803   7
 -10  -9 -11 645.863 73.8793   7
 -10   9 -11 780.193 68.9917   5
  10   9  -9 1038.86 111.134   8
 -10   9  -9 954.823 79.2237   7
 -10  -9  -9 838.426 82.5988   7
 -10   9  -7 2275.97 113.803   4
  10   9  -7 1929.55 155.431   8
 -10   9  -7 1775.38 102.973   7
 -10   9  -7 1870.90 108.445   5
  10  -9  -7 2395.90 171.036   6
 -10   9  -5 1893.63 102.580   4
 -10  -9  -5 2035.42 152.860   4
  10  -9  -5 2005.13 130.453   1
  10   9  -5 1670.97 150.069   8
  10  -9  -5 2304.18 166.950   6
 -10   9  -5 1600.54 100.266   5
  10   9  -3 2895.23 64.5741   2
  10  -9  -3 3135.02 171.595   1
  10   9  -3 2681.39 201.800   8
  10  -9  -3 3088.75 197.060   6
 -10   9  -3 2427.39 126.895   5
  10  -9  -1 1991.86 140.522   1
  10  -9  -1 1932.33 117.091   2
  10   9  -1 1691.65 168.653   8
 -10   9  -1 1749.81 94.8366   7
 -10   9  -1 1748.49 108.693   5
  10  -9   1 1875.81 117.659   2
 -10  -9   1 2264.17 129.391   4
  10   9   1 2085.46 119.040   4
 -10   9   1 2190.78 110.204   4
 -10   9   1 1904.01 114.418   5
 -10   9   1 1916.24 100.101   7
 -10   9   3 3136.83 133.961   4
 -10  -9   3 2986.67 139.485   4
  10   9   3 3017.91 152.788   4
  10  -9   3 2440.36 138.604   2
  10  -9   3 3252.52 187.696   1
 -10   9   3 3097.27 150.692   2
 -10   9   3 2261.62 63.1150   8
  10  -9   3 3576.93 208.638   6
 -10   9   3 2727.37 137.314   5
 -10   9   3 2702.72 115.584   7
  10   9   5 1706.79 120.380   4
 -10   9   5 2013.85 109.269   4
 -10  -9   5 1923.50 108.841   4
  10  -9   5 1527.48 112.671   2
 -10   9   5 1723.03 67.2175   8
  10  -9   5 2085.80 161.095   6
 -10   9   5 1703.25 110.559   5
 -10   9   5 1716.29 92.6116   7
  10   9   7 1855.85 132.558   4
 -10  -9   7 2091.26 108.060   4
  10  -9   7 1833.77 125.215   2
 -10   9   7 1841.94 79.5874   8
 -10   9   7 1887.45 115.137   5
 -10   9   7 1879.87 95.6276   7
  10   9   9 1068.82 106.369   4
  10   9   9 922.596 111.908   3
 -10  -9   9 1256.41 80.6956   4
  10  -9   9 1254.38 106.406   2
 -10   9   9 1162.72 69.0566   8
 -10   9   9 1149.19 91.9401   5
 -10   9   9 1267.40 78.4669   7
  10   9  11 772.619 96.5520   4
 -10  -9  11 910.716 67.6845   4
  10   9  11 683.201 104.643   3
  10  -9  11 903.699 94.5209   2
 -10   9  11 856.084 64.6371   8
 -10   9  11 765.439 77.0852   5
 -10   9  11 840.488 63.6771   7
 -10  -9  13 1691.12 90.0997   4
 -10   9  13 1642.54 98.0212   8
 -10   9  13 1819.27 93.5930   7
 -10   9  13 1642.18 107.611   5
 -10  -9  15 341.393 41.9325   4
 -10  -9  15 217.616 67.2849   6
 -10   9  15 366.420 53.1287   5
 -10  -9  17 61.7778 40.6785   6
 -10   9  17 53.6392 28.6325   5
 -10 -10 -16 363.010 54.6084   7
 -10 -10 -16 346.925 64.5472   6
 -10  10 -16 435.638 53.6509   5
 -10  10 -14 549.618 67.9803   4
  10  10 -14 726.612 79.0882   1
  10 -10 -14 445.948 84.5346   9
  10  10 -14 509.575 75.4477   9
 -10 -10 -14 402.681 78.8384   6
 -10 -10 -14 428.477 58.2203   7
 -10  10 -14 437.454 54.9490   5
 -10  10 -12 109.197 36.1028   4
  10  10 -12 112.016 39.2817   1
  10  10 -12 107.723 48.6914   8
 -10  10 -12 73.7307 28.9154   5
 -10 -10 -12 81.3984 33.8118   7
 -10  10 -10 950.357 75.2234   4
  10  10 -10 1185.30 88.9875   1
  10 -10 -10 949.251 65.3367   1
  10  10 -10 889.561 106.161   8
 -10  10 -10 841.933 76.1421   7
 -10 -10 -10 871.917 84.2395   7
 -10  10  -8 658.768 63.6151   4
  10  10  -8 731.779 100.600   8
 -10  10  -6 23.4172 22.5953   4
  10 -10  -6 24.3512 27.0735   1
  10  10  -6 22.8398 38.4609   8
 -10  10  -6 56.7032 27.2488   5
 -10  10  -4 1209.95 81.3615   4
  10  10  -4 1170.33 76.2562   4
  10 -10  -4 1112.00 100.585   1
  10  10  -4 1037.74 128.813   8
 -10  10  -4 1051.51 74.8482   7
 -10  10  -4 1041.12 82.7961   5
 -10  10  -2 994.133 73.6322   4
 -10 -10  -2 992.717 100.332   4
  10  10  -2 978.725 74.9024   4
  10  10  -2 968.823 37.8178   2
  10 -10  -2 1062.82 99.5735   1
 -10  10  -2 791.643 64.8195   7
  10  10  -2 808.025 123.668   8
 -10  10  -2 752.271 72.3854   5
 -10 -10   0 37.5278 31.6957   4
  10 -10   0 2.01069 22.8148   2
  10  10   0-0.92385 16.0169   2
  10  10   0-4.96073 47.0319   8
 -10  10   0 26.0908 20.5101   7
 -10  10   0 7.46947 18.6501   5
 -10 -10   2 896.927 81.9519   4
 -10  10   2 787.703 67.3674   4
  10  10   2 819.951 78.1898   4
  10 -10   2 650.341 72.0193   2
  10 -10   2 813.845 92.2496   1
 -10  10   2 773.719 60.4268   7
 -10  10   2 731.837 72.9180   5
 -10 -10   4 1198.95 89.2956   4
  10  10   4 1145.80 97.8474   4
 -10  10   4 1305.54 87.1963   4
  10 -10   4 990.783 90.1332   2
 -10  10   4 1074.56 47.7203   8
 -10  10   4 1146.90 91.0577   5
 -10  10   4 1051.37 70.7082   7
 -10 -10   6 22.5097 24.1176   4
  10  10   6 17.7808 28.7157   4
  10 -10   6 9.26708 24.8552   2
 -10  10   6 19.8836 13.8271   8
 -10  10   6 26.1808 25.7000   5
 -10  10   6 14.2459 16.6713   7
  10  10   8 501.115 74.0580   4
  10  10   8 372.754 75.0759   3
 -10 -10   8 470.830 52.7634   4
  10 -10   8 470.360 67.6067   2
 -10  10   8 475.963 42.5017   8
 -10  10   8 535.233 47.9341   7
  10  10  10 784.003 111.484   3
  10  10  10 836.179 96.4918   4
 -10 -10  10 1116.78 74.6571   4
  10 -10  10 994.210 97.0000   2
 -10  10  10 954.004 65.1657   8
 -10  10  10 1048.34 65.6752   7
 -10  10  10 975.891 86.5200   5
 -10 -10  12 91.2388 27.5487   4
  10  10  12 70.0635 55.9197   3
 -10  10  12 100.894 30.3675   8
 -10  10  12 67.5336 32.6663   5
 -10  10  12 89.1322 24.5550   7
 -10  10  14 482.598 56.3767   8
 -10  10  14 434.322 58.6685   5
 -10 -10  16 256.734 73.2720   6
 -10  10  16 444.014 58.3654   5
 -10 -11 -17 18.6718 25.8182   7
  10  11 -15 219.987 53.2183   1
 -10 -11 -15 132.699 53.8214   6
 -10 -11 -15 164.425 40.0369   7
 -10  11 -15 141.410 36.5114   5
 -10  11 -13 1117.64 87.3269   4
  10 -11 -13 883.820 111.505   9
  10  11 -13 945.111 94.9269   9
 -10  11 -13 943.727 79.2306   5
 -10 -11 -13 785.097 78.8326   7
 -10  11 -11 206.082 39.8033   4
  10  11 -11 244.326 47.9885   1
  10  11 -11 141.390 54.5674   8
 -10  11 -11 140.164 36.3388   5
 -10 -11 -11 148.961 41.2164   7
 -10  11  -9 303.234 45.4531   4
  10  11  -9 231.464 46.9379   1
  10  11  -9 197.173 61.3169   8
 -10 -11  -9 184.592 45.6703   7
 -10  11  -7 1329.80 84.7402   4
  10  11  -7 1232.24 132.029   8
 -10  11  -7 1139.47 86.8971   5
 -10  11  -5 510.363 54.0111   4
  10 -11  -5 513.678 69.6491   1
 -10  11  -5 489.982 54.5359   7
  10  11  -5 475.632 90.4473   8
 -10  11  -5 467.475 58.0888   5
 -10  11  -3 621.093 58.9799   4
  10  11  -3 685.818 60.5754   4
 -10 -11  -3 703.357 90.5134   4
  10 -11  -3 582.689 76.1865   1
 -10  11  -3 576.922 55.8762   7
  10  11  -3 529.707 104.064   8
 -10  11  -3 465.891 58.7726   5
 -10 -11  -1 811.121 89.0179   4
  10  11  -1 893.920 74.3081   4
 -10  11  -1 800.501 67.8389   4
  10  11  -1 876.500 42.6210   2
  10 -11  -1 926.022 97.0900   1
  10  11  -1 808.026 129.580   8
 -10  11  -1 705.820 59.3998   7
 -10  11  -1 827.870 76.7782   5
 -10 -11   1 892.151 88.3129   4
  10 -11   1 735.248 75.9242   2
 -10  11   1 725.664 58.4481   7
 -10  11   1 689.212 71.6562   5
 -10 -11   3 653.677 69.6220   4
  10 -11   3 512.493 66.4436   2
 -10  11   3 545.223 49.7871   7
 -10  11   3 533.382 64.3049   5
  10  11   5 583.912 74.8177   4
 -10 -11   5 658.522 64.6421   4
  10 -11   5 564.713 71.5707   2
 -10  11   5 612.548 50.4671   7
 -10  11   5 566.364 67.0680   5
 -10 -11   7 1151.16 81.4391   4
  10  11   7 1211.49 109.050   4
  10  11   7 1149.42 118.784   3
  10 -11   7 1175.86 101.730   2
 -10  11   7 1219.57 68.8106   7
  10  11   9 230.654 53.9607   4
 -10 -11   9 274.906 39.9647   4
  10 -11   9 258.262 54.4931   2
  10  11   9 223.481 64.8810   3
 -10  11   9 242.803 33.1820   8
 -10  11   9 284.938 33.5540   7
 -10  11   9 250.806 47.9458   5
 -10 -11  11 217.894 35.2836   4
  10  11  11 129.004 57.4972   3
 -10  11  11 153.063 31.5666   8
 -10  11  11 147.892 39.5726   5
 -10  11  11 211.757 27.4946   7
 -10  11  13 975.279 74.4937   8
 -10  11  13 962.133 87.1960   5
 -10  11  15 143.239 39.5612   5
 -10 -12 -14 566.573 65.3618   7
  10 -12 -12 1023.35 116.878   9
  10  12 -12 968.772 93.5038   9
 -10 -12 -12 844.899 81.3847   7
 -10  12 -10 721.966 62.8066   4
  10  12 -10 592.464 70.3828   1
  10  12 -10 625.818 97.3090   8
 -10  12 -10 624.608 67.6035   5
 -10 -12 -10 509.147 67.9055   7
 -10  12  -8 1177.59 80.1038   4
  10 -12  -8 1034.47 82.3029   1
  10  12  -8 1068.93 127.807   8
 -10  12  -8 1009.97 82.4289   7
 -10  12  -8 987.691 82.9646   5
  10  12  -6 3058.76 223.810   8
 -10  12  -6 2940.97 139.087   7
 -10  12  -6 3217.08 154.140   5
 -10  12  -4 572.929 56.1483   4
  10  12  -4 604.735 54.5442   4
  10 -12  -4 623.711 79.2148   1
 -10  12  -4 538.200 56.3934   7
  10  12  -4 667.305 112.774   8
 -10  12  -4 547.942 64.3240   5
 -10  12  -2 1206.10 80.3512   4
 -10 -12  -2 1169.73 113.499   4
  10  12  -2 1105.87 78.1364   4
  10 -12  -2 1037.93 101.092   1
 -10  12  -2 985.865 72.3667   7
  10  12  -2 1075.69 150.610   8
 -10  12  -2 950.269 84.2756   5
 -10 -12   0 5099.55 226.211   4
  10  12   0 5288.05 191.429   4
 -10  12   0 5109.00 177.644   4
  10  12   0 5462.12 140.395   2
  10  12   0 4599.74 305.583   8
 -10  12   0 4525.73 160.689   7
 -10  12   0 4774.77 195.690   5
 -10 -12   2 863.529 85.4453   4
  10  12   2 1076.47 90.1337   4
  10 -12   2 741.809 79.4557   2
 -10  12   2 847.193 61.6663   7
 -10  12   2 900.417 59.1156   8
 -10  12   2 880.150 81.8226   5
 -10 -12   4 721.281 73.9066   4
  10 -12   4 600.258 74.0557   2
 -10  12   4 611.878 51.1817   7
 -10  12   4 679.250 73.1151   5
 -10 -12   6 3463.47 150.175   4
  10 -12   6 3309.94 172.819   2
 -10  12   6 3177.93 114.116   7
 -10  12   6 3295.35 164.981   5
  10  12   8 995.750 117.553   3
  10  12   8 1067.54 107.841   4
 -10 -12   8 1123.01 79.3401   4
  10 -12   8 1082.69 102.306   2
 -10  12   8 1145.74 61.4950   7
 -10  12   8 1152.64 97.8383   5
 -10 -12  10 773.247 61.6071   4
  10  12  10 592.722 98.9583   3
 -10  12  10 710.110 43.4401   7
 -10  12  10 757.869 80.1743   5
 -10  12  12 1081.01 75.8634   8
 -10  12  12 971.282 92.6496   5
  10 -13 -13 403.920 80.6032   9
  10  13 -13 514.343 71.9605   9
 -10 -13 -13 453.617 61.2421   7
 -10  13 -11 1612.89 94.4414   4
  10 -13 -11 1394.52 129.415   9
  10  13 -11 1421.89 109.915   9
 -10 -13 -11 1371.02 105.280   7
 -10  13  -9 1607.03 92.7244   4
 -10  13  -9 1481.24 102.734   7
 -10  13  -7 1126.81 76.5840   4
  10 -13  -7 956.532 83.9863   1
  10  13  -7 997.957 129.382   8
 -10  13  -7 972.951 80.9504   7
 -10  13  -7 928.517 84.5899   5
 -10  13  -5 1391.99 85.5648   4
  10  13  -5 1357.37 157.666   8
 -10  13  -5 1271.33 89.2129   7
 -10  13  -5 1189.97 95.7383   5
 -10  13  -3 1913.26 101.525   4
  10  13  -3 1876.27 97.6901   4
 -10  13  -3 1624.23 97.0455   7
  10  13  -3 1682.37 188.386   8
 -10  13  -3 1691.40 113.964   5
 -10 -13  -1 1491.55 128.243   4
  10  13  -1 1403.24 92.4826   4
 -10  13  -1 1433.73 89.4898   4
  10  13  -1 1130.24 34.7012   2
  10  13  -1 1218.97 163.067   8
 -10  13  -1 1217.48 79.5049   7
 -10  13  -1 1240.62 99.7757   5
 -10 -13   1 1291.97 109.331   4
  10  13   1 1297.78 94.4034   4
 -10  13   1 1136.06 73.9808   7
 -10  13   1 1107.50 61.2045   8
 -10  13   1 1225.80 100.585   5
 -10 -13   3 1831.97 121.322   4
  10  13   3 1887.12 122.296   4
  10 -13   3 1584.47 117.346   2
 -10  13   3 1699.06 87.1271   7
 -10  13   3 1743.53 119.753   5
  10  13   5 1587.91 120.277   4
 -10 -13   5 1533.18 103.331   4
  10 -13   5 1578.06 117.328   2
 -10  13   5 1401.01 75.0818   7
 -10  13   5 1524.87 112.764   5
 -10 -13   7 1123.55 83.0981   4
  10  13   7 960.863 113.419   3
 -10  13   7 1017.32 58.8495   7
 -10 -13   9 1536.83 90.5106   4
 -10  13   9 1601.43 63.4115   7
 -10  13   9 1618.02 119.246   5
  10  13  11 1085.89 136.247   3
  10 -14 -12 1890.63 153.325   9
  10  14 -12 1760.22 123.356   9
 -10 -14 -12 1413.19 105.178   7
  10  14 -10 279.466 51.4571   9
  10 -14 -10 243.490 60.9131   9
 -10 -14 -10 251.288 52.0953   7
 -10  14  -8 2326.29 111.614   4
 -10  14  -6 5771.44 183.846   4
  10 -14  -6 5511.79 217.951   1
 -10  14  -4 131.208 32.1643   4
  10  14  -4 209.828 33.2577   4
  10  14  -4 212.900 78.6878   8
 -10  14  -4 138.100 34.6229   7
  10  14  -2 1474.49 88.9488   4
 -10  14  -2 1084.57 43.3493   8
 -10  14  -2 1332.22 86.5677   7
  10  14  -2 1267.69 172.097   8
 -10 -14   0 8849.80 318.060   4
  10  14   0 8551.01 250.546   4
  10  14   0 7553.17 415.752   8
 -10  14   0 7002.44 178.585   8
 -10  14   0 7591.32 219.722   7
  10  14   0 8315.17 167.320   2
 -10 -14   2 1224.50 106.709   4
  10  14   2 1398.27 103.302   4
 -10  14   2 1176.59 73.6664   7
 -10  14   2 1173.81 83.7488   8
 -10 -14   4 190.488 45.5727   4
  10  14   4 209.628 48.0071   4
 -10  14   4 194.604 31.3514   7
  10  14   6 5505.07 237.863   4
  10  14   6 5470.00 255.408   3
 -10  14   6 5199.84 146.044   7
  10  14   8 2176.43 175.942   3
  10  14  10 213.035 70.0059   3
  10 -15 -11 481.033 80.2000   9
  10  15 -11 360.981 59.4492   9
 -10 -15 -11 373.315 59.7726   7
  10 -15  -9 313.648 64.2081   9
  10  15  -9 244.139 49.6072   9
 -10 -15  -9 183.803 47.8482   7
 -10  15  -7 289.798 41.7961   4
 -10  15  -5 318.139 43.3332   4
  10  15  -3 189.351 33.6708   4
 -10  15  -3 192.306 20.9261   8
 -10  15  -3 216.022 40.5417   7
  10  15  -1 424.278 52.7101   4
 -10  15  -1 374.197 35.2334   8
 -10  15  -1 410.366 49.9464   7
  10  15   1 456.204 57.2147   4
 -10  15   1 380.381 45.5999   7
 -10  15   1 361.214 46.6097   8
  10  15   3 211.043 47.7308   4
 -10 -15   3 206.984 52.5734   4
 -10  15   3 148.045 42.5165   8
 -10  15   3 185.672 33.2603   7
  10  15   5 453.058 68.3545   4
 -10 -15   5 336.304 55.5439   4
  10  15   7 285.409 69.9801   3
  10  15   9 330.087 79.3372   3
  10  16  -2 25.0129 22.5133   4
  10  16   0 833.078 72.3980   4
  10  16   2 39.9300 29.3548   4
  10  16   4 60.3295 33.9248   4
  10  16   6 518.158 81.4278   3
  10  16   8 67.5089 51.4733   3
  10  17  -3 646.908 53.8379   4
  10  17  -1 116.447 32.3919   4
  10  17   1 104.653 35.3840   4
  10  17   3 720.933 78.1120   4
  10  18   0 187.359 38.8826   4
 -11   0 -17 17.9049 19.6614   5
 -11   0 -15 778.605 63.3262   5
 -11   0 -13 2541.02 133.348   7
 -11   0 -13 2294.05 116.319   5
 -11   0 -11 626.164 62.8283   5
 -11   0 -11 535.455 63.4847   7
 -11   0  -9 2158.05 140.401   4
 -11   0  -9 1341.02 96.7500   7
 -11   0  -7 6405.91 286.134   3
 -11   0  -7 6168.69 229.938   4
 -11   0  -5 3056.79 181.259   3
 -11   0  -5 3071.02 153.392   4
 -11   0  -5 2178.17 127.006   7
 -11   0  -5 2499.13 133.733   6
 -11   0  -3 1936.99 116.932   4
 -11   0  -3 1468.15 105.197   6
 -11   0  -1 6917.98 226.125   4
 -11   0  -1 5748.66 221.855   6
  11   0   1 5665.37 196.255   2
  11   0   1 5223.89 196.399   4
 -11   0   1 5157.08 211.091   6
  11   0   3 1530.09 105.322   2
 -11   0   3 1865.47 106.349   4
  11   0   3 1459.81 100.584   4
 -11   0   3 1690.48 116.961   6
  11   0   5 2315.84 139.485   2
  11   0   5 2403.09 134.671   4
 -11   0   5 2662.03 147.786   6
  11   0   7 4373.50 193.763   4
 -11   0   7 5289.58 189.797   4
  11   0   7 5521.44 108.069   8
 -11   0   7 4429.67 200.751   6
 -11   0   9 1855.55 105.658   4
  11   0   9 1779.82 62.4142   8
 -11   0  11 716.974 76.8362   5
  11   0  11 811.503 85.7619   4
 -11   0  11 825.489 65.6817   2
  11   0  11 906.423 50.1565   8
 -11   0  11 856.807 106.623   8
  11   0  13 2841.23 162.664   4
 -11   0  13 2840.71 121.253   2
 -11   0  13 2977.01 203.081   8
  11   0  13 2909.96 104.604   8
 -11   0  15 1185.25 77.3658   2
  11   0  15 1128.18 69.7298   8
 -11   0  17 45.3391 25.6283   2
 -11   0  17 27.6077 25.6789   5
 -11   1 -18 457.868 46.3783   5
 -11  -1 -18 464.737 47.2190   5
 -11  -1 -16 919.965 67.4438   5
 -11   1 -16 872.891 65.9747   5
  11  -1 -14 274.064 32.2200   1
  11   1 -14 281.898 31.0879   1
  11  -1 -14 345.885 26.3336   1
 -11   1 -14 181.824 33.7210   5
 -11  -1 -14 178.058 35.3316   5
 -11   1 -14 163.372 39.3482   7
 -11  -1 -14 194.246 41.8633   7
 -11   1 -12 402.777 54.0870   7
 -11  -1 -12 353.184 48.3444   5
 -11  -1 -12 442.617 57.7719   7
 -11   1 -12 371.711 48.0206   5
 -11   1 -10 2301.51 125.777   7
 -11  -1 -10 2123.22 122.681   7
 -11   1  -8 1019.12 120.626   3
 -11   1  -8 1141.81 95.7514   4
 -11   1  -8 766.471 72.8653   7
 -11  -1  -8 726.858 74.5514   7
 -11   1  -8 713.876 68.1817   5
 -11  -1  -8 815.999 75.1162   6
 -11   1  -6 637.870 89.2814   3
 -11  -1  -6 587.311 84.0723   3
 -11   1  -6 671.604 73.0729   4
 -11  -1  -6 588.369 72.4888   4
 -11  -1  -6 423.411 57.1719   6
 -11   1  -6 444.437 56.4155   7
 -11   1  -6 409.323 53.7533   5
 -11  -1  -6 447.421 59.1694   7
 -11   1  -4 1989.51 142.638   3
 -11   1  -4 1874.64 114.624   4
 -11  -1  -4 1957.60 121.877   4
 -11  -1  -4 1437.95 108.139   6
 -11   1  -4 1443.70 102.733   7
 -11   1  -2 2027.65 116.513   4
 -11  -1  -2 1925.69 116.243   4
 -11   1   0 1047.59 81.5080   4
 -11  -1   0 1210.69 88.2473   4
  11   1   0 1013.90 80.5526   4
 -11  -1   0 1171.85 96.3807   3
  11  -1   0 994.259 77.2386   2
  11   1   0 1124.29 46.0190   8
 -11  -1   0 909.261 89.2322   6
 -11   1   2 1858.36 107.123   4
 -11  -1   2 1748.98 104.668   4
  11  -1   2 1446.09 98.0246   4
  11   1   2 1614.45 105.211   4
 -11  -1   2 1871.91 114.463   3
  11  -1   2 1582.37 103.138   2
  11   1   2 1553.98 101.330   2
  11   1   2 2015.15 61.0542   8
 -11  -1   2 1571.20 118.480   6
 -11   1   4 1835.75 104.041   4
 -11  -1   4 1841.95 105.613   4
  11  -1   4 1637.07 107.236   4
  11   1   4 1358.83 101.816   4
  11  -1   4 1540.80 109.838   2
  11   1   4 1606.80 112.133   2
  11   1   4 1954.23 76.5950   8
 -11  -1   4 1598.41 119.439   6
  11  -1   6 391.165 60.1261   2
 -11  -1   6 539.004 57.3657   4
  11  -1   6 490.035 61.2468   4
  11   1   6 395.794 57.0604   4
 -11   1   6 574.055 60.5704   4
 -11  -1   6 505.862 68.8549   6
 -11   1   8 669.404 73.2871   5
  11  -1   8 776.163 78.4737   4
 -11   1   8 944.147 75.7131   4
  11   1   8 694.123 76.4500   4
 -11  -1   8 901.202 74.1479   4
  11  -1   8 747.344 86.5281   2
  11  -1   8 790.250 32.7171   8
 -11  -1   8 694.932 79.3308   6
  11  -1  10 2569.79 145.107   4
  11   1  10 2530.84 152.260   4
 -11   1  10 2740.03 124.391   2
 -11   1  10 2503.25 168.972   8
  11  -1  10 3119.16 95.6863   8
 -11   1  10 2191.99 132.351   5
 -11  -1  10 2140.65 137.261   6
  11  -1  12 443.862 64.4592   4
  11   1  12 499.090 70.7318   4
 -11   1  12 448.427 50.4043   2
  11  -1  12 465.919 42.0602   8
  11   1  12 426.223 37.1561   8
 -11   1  12 308.004 52.5870   5
  11   1  14 246.061 52.6618   4
 -11   1  14 171.902 39.6357   5
 -11  -1  14 186.633 43.5425   5
 -11   1  14 272.284 40.5446   2
 -11  -1  14 215.645 34.4050   2
  11   1  14 205.642 30.1238   8
 -11   1  14 187.072 62.6973   8
  11  -1  14 249.413 36.6598   8
 -11  -1  14 252.047 73.0008   8
 -11   1  16 1282.99 84.9020   2
 -11  -1  16 1278.93 76.7637   2
  11   1  16 1217.21 73.3975   8
  11  -1  16 1380.02 87.2272   8
 -11   1  16 975.063 80.2462   5
 -11  -1  16 1031.43 88.1774   5
 -11  -1  18 327.420 49.0042   5
 -11  -2 -17 6.76882 17.8059   5
 -11   2 -17 6.85272 18.1897   5
  11   2 -15 48.8869 22.9550   1
 -11  -2 -15 20.5780 21.4091   5
 -11   2 -15 21.3685 19.7558   5
 -11  -2 -15 18.8432 27.4133   7
 -11   2 -13 696.019 72.1598   7
 -11  -2 -13 758.340 74.6762   7
 -11   2 -13 652.949 59.8568   5
 -11  -2 -13 677.934 64.7068   5
 -11   2 -11 335.022 48.5663   7
 -11   2 -11 285.301 42.0166   5
 -11  -2 -11 275.399 48.9358   7
 -11  -2 -11 253.333 44.1783   6
 -11   2  -9 493.762 59.5497   7
 -11  -2  -9 524.499 64.4716   7
 -11   2  -7 592.454 89.0089   3
 -11  -2  -7 570.820 73.4998   4
 -11   2  -7 553.570 67.8829   4
 -11  -2  -7 319.439 53.6163   6
 -11   2  -7 374.144 51.2371   7
 -11   2  -7 351.913 49.9257   5
 -11  -2  -7 345.467 53.9937   7
 -11   2  -5 508.398 78.9818   3
 -11   2  -5 533.520 63.1536   4
 -11  -2  -5 503.192 66.0477   4
 -11  -2  -5 426.010 62.2575   6
 -11   2  -5 288.307 46.4664   5
 -11   2  -5 384.983 52.2798   7
 -11   2  -3 2627.85 160.904   3
 -11   2  -3 2624.03 134.187   4
 -11  -2  -3 2526.90 140.222   4
 -11  -2  -3 2591.38 156.636   3
  11  -2  -3 2268.20 109.583   2
  11   2  -3 2547.60 96.2588   8
 -11  -2  -3 2025.80 135.158   6
 -11   2  -3 1972.11 115.930   5
 -11   2  -3 1997.85 118.869   7
 -11   2  -1 145.295 34.2503   4
 -11   2  -1 78.7993 28.9039   5
  11   2  -1 146.719 34.0496   4
 -11  -2  -1 123.983 33.3198   4
  11  -2  -1 134.110 31.6507   2
 -11   2  -1 101.526 38.9936   3
 -11  -2  -1 154.564 41.9380   3
  11   2  -1 167.602 25.9387   8
 -11  -2  -1 92.5325 37.0097   6
 -11   2   1 106.456 32.3138   4
 -11   2   1 86.9599 29.7863   5
 -11  -2   1 137.509 33.6970   4
  11   2   1 82.2377 29.3620   4
  11  -2   1 86.4426 28.0725   2
 -11  -2   1 76.1057 31.1114   3
  11   2   1 123.317 26.1532   8
 -11  -2   1 62.1670 34.7140   6
 -11   2   3 2570.03 123.346   4
 -11  -2   3 2482.41 124.843   4
  11  -2   3 2024.89 116.869   4
 -11  -2   3 2530.69 128.192   3
  11   2   3 1998.08 119.886   4
  11  -2   3 1984.45 121.924   2
  11   2   3 2252.16 110.830   8
 -11   2   3 1968.57 118.467   5
 -11  -2   3 2041.69 141.002   6
  11  -2   5 341.461 55.0420   2
  11   2   5 332.694 55.2806   2
 -11  -2   5 418.701 52.2971   4
  11  -2   5 394.972 54.2328   4
  11   2   5 324.909 51.6853   4
 -11   2   5 480.890 55.2826   4
 -11  -2   5 379.545 63.2976   6
 -11   2   5 376.277 54.6286   5
  11  -2   7 352.937 59.2311   2
 -11  -2   7 496.169 54.7710   4
  11  -2   7 347.397 52.5222   4
 -11   2   7 458.792 54.1395   4
  11   2   7 338.423 54.0693   4
 -11  -2   7 336.259 59.4175   6
 -11   2   7 341.692 53.1506   5
  11  -2   9 568.619 67.2159   4
  11   2   9 449.477 65.6560   4
 -11   2   9 623.815 60.2821   2
  11  -2   9 575.135 77.1642   2
 -11   2   9 558.925 76.1982   8
 -11  -2  11 337.327 47.8382   4
  11   2  11 309.590 58.3356   4
 -11   2  11 360.240 47.8588   2
 -11   2  11 327.099 66.9779   8
  11  -2  11 462.980 43.7456   8
 -11  -2  11 251.984 51.9811   6
 -11   2  11 315.694 52.4410   5
  11   2  13 709.557 84.6489   4
  11  -2  13 830.522 83.1340   4
 -11   2  13 770.236 66.8928   2
  11  -2  13 957.509 68.3516   8
 -11   2  13 711.642 96.2143   8
 -11   2  13 691.113 70.6002   5
 -11  -2  13 625.452 74.6028   6
  11  -2  15 46.5637 32.5930   4
 -11  -2  15 22.2410 25.6815   5
 -11   2  15 39.7599 25.8614   2
  11   2  15 41.4506 20.4502   8
 -11   2  15 22.9721 39.3659   8
  11  -2  15 33.7868 27.6241   8
 -11   2  15 28.1725 22.9118   5
 -11  -2  17 6.37298 23.6996   5
 -11   2  17 14.9187 24.0920   5
 -11   3 -18 197.320 33.5909   5
 -11  -3 -18 182.420 31.3631   5
 -11   3 -16 592.434 56.0970   5
 -11  -3 -16 593.085 58.7754   5
  11   3 -14 46.6866 22.0832   1
 -11  -3 -14 15.2741 23.6052   5
 -11   3 -14 10.1601 18.3159   5
 -11   3 -12 263.997 46.0084   7
 -11  -3 -12 257.787 47.3143   7
 -11  -3 -12 325.328 49.3766   6
 -11   3 -12 279.807 41.8184   5
 -11   3 -10 1532.06 101.233   7
 -11  -3 -10 1510.55 106.686   7
 -11   3  -8 416.709 80.1840   3
 -11   3  -8 397.534 59.0477   4
 -11  -3  -8 234.035 47.9707   6
 -11   3  -8 289.273 45.2607   7
 -11   3  -8 285.310 41.8533   5
 -11  -3  -8 292.077 50.2370   7
 -11  -3  -6 608.212 76.1017   4
 -11   3  -6 621.615 68.4813   4
 -11   3  -6 649.129 90.6891   3
  11   3  -6 651.071 58.0203   8
 -11   3  -6 497.190 56.2043   5
 -11  -3  -6 386.991 62.9612   6
 -11   3  -6 557.059 60.8661   7
 -11  -3  -6 404.863 58.3046   7
 -11   3  -4 2389.83 156.549   3
 -11   3  -4 2042.37 117.783   4
 -11  -3  -4 1958.15 129.319   4
  11   3  -4 2023.19 99.1212   8
 -11  -3  -4 1456.84 117.568   6
 -11   3  -4 1608.70 103.150   5
 -11   3  -4 1548.82 102.571   7
 -11   3  -2 1203.89 87.4576   4
 -11   3  -2 1165.34 103.866   3
 -11  -3  -2 1264.69 97.5398   4
 -11  -3  -2 1120.13 98.5959   3
  11  -3  -2 1015.13 74.8779   2
  11   3  -2 1158.03 75.5779   8
 -11  -3  -2 834.440 92.1637   6
 -11   3  -2 917.868 78.5616   5
 -11   3  -2 926.696 79.6339   7
 -11   3   0 1139.34 83.0530   4
 -11  -3   0 1073.46 85.9486   4
  11   3   0 1008.42 81.7315   4
  11  -3   0 977.385 77.7556   2
 -11  -3   0 1020.17 86.9858   3
  11   3   0 1094.48 76.4059   8
 -11   3   0 888.203 80.3983   5
 -11  -3   0 871.061 95.4293   6
 -11   3   2 1354.07 88.5154   4
 -11  -3   2 1254.59 90.8409   4
  11   3   2 987.753 83.2427   4
  11  -3   2 1030.28 83.7156   2
 -11  -3   2 1246.69 90.3249   3
  11   3   2 980.739 84.1626   8
 -11   3   2 996.370 84.7231   5
 -11  -3   2 935.822 99.0034   6
 -11  -3   4 1617.06 95.7736   3
 -11  -3   4 1646.95 100.574   4
  11  -3   4 1499.94 99.1529   4
  11   3   4 1394.96 103.134   4
 -11   3   4 1773.37 103.518   4
  11  -3   4 1295.37 102.237   2
  11   3   4 1451.49 113.024   8
 -11  -3   4 1280.81 117.903   6
 -11   3   4 1435.37 103.870   5
  11  -3   6 479.017 65.0974   2
 -11  -3   6 597.571 60.3602   4
  11  -3   6 543.606 62.8844   4
 -11   3   6 614.630 62.0406   4
 -11  -3   6 598.625 55.1499   3
  11   3   6 455.188 62.4520   4
 -11  -3   6 471.246 72.1294   6
 -11   3   6 526.314 63.7616   5
  11  -3   8 328.053 50.9593   4
  11   3   8 290.839 54.2836   4
  11  -3   8 284.167 54.3589   2
 -11   3   8 350.033 47.9684   2
 -11   3   8 275.240 52.8541   8
 -11  -3   8 260.391 56.7988   6
  11   3  10 1251.30 109.870   4
 -11  -3  10 1688.68 99.0258   4
 -11   3  10 1640.67 99.2737   2
  11  -3  10 1567.72 126.058   2
 -11   3  10 1495.41 121.852   8
 -11  -3  10 1291.44 115.118   6
 -11   3  10 1204.10 93.7238   5
  11   3  12 317.237 61.3670   4
  11  -3  12 424.283 58.7268   4
 -11   3  12 440.509 53.3474   2
 -11   3  12 400.242 68.4967   8
  11  -3  12 465.637 53.9764   8
 -11  -3  12 325.557 59.3710   6
 -11   3  12 332.220 50.9657   5
  11  -3  14 26.0034 28.4197   4
  11   3  14 8.92225 30.7017   4
 -11   3  14 10.9498 22.7398   2
 -11   3  14 28.7174 36.9439   8
  11  -3  14 43.2858 32.4950   8
 -11  -3  14 15.0513 28.7243   6
 -11   3  14 29.0927 26.3135   5
  11  -3  16 754.737 79.6863   4
 -11   3  16 583.602 62.9384   5
 -11  -3  18 176.551 42.5111   5
 -11   3  18 226.621 41.2878   5
 -11  -4 -17 124.479 31.7752   5
 -11   4 -17 100.533 27.0131   5
 -11  -4 -15 431.620 58.9691   7
 -11   4 -15 370.190 47.0037   5
  11  -4 -13 1470.95 50.9807   1
 -11   4 -13 1352.93 98.4371   7
 -11   4 -13 1352.55 87.5576   5
 -11  -4 -13 1374.48 97.9494   6
  11  -4 -11 319.295 47.4252   1
 -11   4 -11 196.541 40.1187   7
 -11  -4 -11 232.867 47.8335   6
 -11  -4 -11 209.575 43.3376   7
 -11   4 -11 234.815 40.6195   5
  11  -4  -9 288.601 59.0614   1
 -11   4  -9 180.863 37.2411   7
 -11  -4  -9 174.567 42.0387   7
 -11  -4  -7 2459.84 157.241   4
 -11   4  -7 2631.25 136.713   4
 -11   4  -7 2454.10 174.374   3
  11   4  -7 2188.43 118.584   8
 -11  -4  -7 1661.05 125.250   6
 -11   4  -7 1629.16 98.9738   5
 -11   4  -7 1738.84 106.878   7
 -11  -4  -7 1744.33 118.476   7
 -11  -4  -5 802.468 86.8930   4
 -11   4  -5 872.229 76.6691   4
 -11   4  -5 760.949 94.6306   3
  11   4  -5 719.922 67.3112   8
 -11  -4  -5 569.852 78.2855   6
 -11   4  -5 667.117 64.2852   5
 -11   4  -5 620.931 64.0223   7
 -11   4  -3 204.344 40.3306   4
 -11  -4  -3 205.544 47.0785   4
 -11   4  -3 180.625 49.9145   3
  11  -4  -3 183.252 33.5677   2
  11   4  -3 186.066 26.3273   2
  11   4  -3 186.938 38.7290   8
 -11   4  -3 154.239 33.9269   5
 -11  -4  -3 133.159 45.3221   6
 -11   4  -3 153.717 36.3935   7
 -11   4  -1 1641.33 101.436   4
  11   4  -1 1550.21 99.2291   4
 -11  -4  -1 1640.10 110.632   4
  11  -4  -1 1547.49 96.0077   2
  11   4  -1 1241.65 93.5948   8
 -11   4  -1 1340.71 93.9307   5
 -11  -4  -1 1107.40 112.516   6
 -11   4  -1 1426.71 97.2995   7
 -11   4   1 2083.52 112.190   4
 -11  -4   1 1974.15 117.066   4
  11   4   1 1776.78 110.938   4
  11  -4   1 1651.31 105.574   2
 -11  -4   1 1855.74 112.324   3
  11   4   1 1526.57 116.141   8
 -11   4   1 1652.87 106.304   5
 -11  -4   1 1409.44 128.457   6
 -11  -4   3 194.995 40.3277   4
 -11   4   3 227.119 41.3237   4
  11   4   3 169.379 40.0248   4
  11  -4   3 168.183 39.8803   2
 -11  -4   3 167.351 36.4138   3
  11   4   3 146.949 36.7654   2
  11   4   3 135.214 46.6042   8
 -11   4   3 172.054 38.2017   5
 -11  -4   3 106.501 46.2260   6
  11  -4   5 485.694 65.4010   2
 -11  -4   5 585.755 54.9460   3
  11  -4   5 584.385 63.8247   4
 -11   4   5 695.927 64.7882   4
  11   4   5 517.020 65.7341   4
 -11  -4   5 444.826 74.9538   6
 -11   4   5 553.014 63.3298   5
 -11  -4   7 2290.37 99.3593   3
  11  -4   7 2318.43 124.225   4
 -11   4   7 2371.53 121.116   4
  11   4   7 1771.97 127.390   4
  11  -4   7 2032.38 135.164   2
 -11   4   7 2199.78 119.803   2
 -11   4   7 2106.49 119.353   8
 -11  -4   7 1549.85 136.862   6
 -11   4   7 2069.62 119.977   5
 -11  -4   9 189.899 37.3225   4
  11   4   9 140.052 41.8789   4
 -11  -4   9 179.275 29.3925   3
 -11   4   9 212.457 41.3075   2
  11  -4   9 162.180 45.2278   2
 -11   4   9 136.450 44.4805   8
 -11  -4  11 259.517 42.4163   4
  11   4  11 171.001 48.8557   4
  11  -4  11 257.157 46.9217   4
 -11   4  11 280.895 46.0214   2
  11  -4  11 308.163 60.1389   2
 -11   4  11 209.643 49.7462   8
 -11   4  11 212.580 42.4689   5
 -11  -4  11 172.086 49.1226   6
  11   4  13 1472.01 126.159   4
  11  -4  13 1866.01 117.378   4
 -11   4  13 1883.88 112.144   2
  11  -4  13 1707.30 137.351   2
 -11   4  13 1858.75 133.930   8
 -11  -4  13 1447.04 121.710   6
 -11   4  13 1644.78 109.035   5
  11  -4  15 433.778 59.4105   4
  11  -4  15 511.468 72.5458   8
 -11   4  15 430.182 71.4763   8
 -11  -4  15 287.954 56.8055   6
 -11   4  15 343.599 49.8236   5
 -11   4  17 80.8854 31.7976   5
 -11   5 -18 186.167 33.9355   5
 -11   5 -16 834.827 67.0928   5
 -11  -5 -14 603.939 66.3254   6
 -11   5 -14 462.658 53.0624   5
 -11  -5 -14 575.877 66.4924   7
 -11   5 -12 1182.43 91.2664   7
 -11  -5 -12 1180.41 99.5346   6
 -11   5 -12 1234.32 84.4983   5
 -11   5 -10 1503.27 108.095   4
  11  -5 -10 1542.71 100.065   1
 -11   5 -10 1013.60 83.2554   7
 -11  -5 -10 1048.98 98.7498   6
 -11  -5 -10 1041.91 92.8790   7
  11   5  -8 1859.48 117.148   8
 -11   5  -8 1633.22 102.668   7
 -11  -5  -8 1586.56 127.858   6
 -11  -5  -8 1486.60 110.499   7
 -11   5  -8 1648.04 100.268   5
 -11  -5  -6 4252.54 207.736   4
 -11   5  -6 4308.80 227.811   3
 -11   5  -6 4118.51 169.459   4
  11   5  -6 3554.37 167.050   8
 -11   5  -6 3394.44 146.636   5
 -11  -5  -6 3210.89 188.475   6
 -11   5  -6 3259.40 147.001   7
 -11  -5  -4 948.817 92.1260   4
 -11   5  -4 826.945 74.3295   4
 -11   5  -4 898.510 99.6903   3
  11   5  -4 904.171 47.1875   2
  11   5  -4 708.398 74.3050   8
 -11   5  -4 716.757 65.8143   5
 -11  -5  -4 660.899 90.2011   6
 -11   5  -4 655.031 64.7567   7
 -11   5  -2 1466.89 95.0859   4
  11   5  -2 1420.00 94.0770   4
 -11  -5  -2 1437.76 108.434   4
  11   5  -2 1431.80 69.5872   2
  11  -5  -2 1262.18 88.5592   2
  11   5  -2 1126.00 96.6557   8
 -11  -5  -2 962.102 111.059   6
 -11   5  -2 1121.05 84.3717   5
 -11   5  -2 1205.22 88.0498   7
 -11   5   0 6722.02 214.390   4
 -11  -5   0 6922.60 235.968   4
  11   5   0 6312.64 216.093   4
  11  -5   0 6113.55 211.707   2
  11   5   0 5263.89 240.787   8
 -11  -5   0 4303.98 243.926   6
 -11   5   0 5501.92 198.469   5
 -11   5   0 5557.27 201.886   7
 -11  -5   2 1371.94 96.5178   4
  11   5   2 1212.65 95.1049   4
 -11   5   2 1488.70 95.4318   4
  11  -5   2 1245.91 95.4626   2
  11   5   2 1198.37 119.222   8
 -11  -5   2 992.055 116.334   6
 -11   5   2 1195.78 88.7317   5
  11  -5   4 644.606 72.3493   2
 -11  -5   4 732.572 59.0475   3
  11   5   4 659.412 73.7251   4
 -11   5   4 765.749 69.2880   4
 -11  -5   4 473.069 83.2403   6
 -11   5   4 625.528 65.7588   5
 -11  -5   6 4124.34 160.829   4
 -11   5   6 3965.52 161.564   4
  11   5   6 3100.65 169.261   4
  11  -5   6 3103.95 168.111   2
 -11  -5   6 3543.14 123.613   3
 -11   5   6 3262.18 130.278   8
 -11  -5   6 2537.34 185.913   6
 -11   5   6 3392.47 155.717   5
  11   5   8 1239.46 109.735   4
 -11  -5   8 1971.38 107.921   4
  11  -5   8 1647.82 125.263   2
 -11   5   8 1943.26 113.636   2
 -11  -5   8 1579.41 70.9450   3
 -11   5   8 1568.99 104.127   8
 -11  -5   8 1173.05 123.603   6
  11   5  10 735.386 87.7056   4
 -11  -5  10 1227.86 84.5568   4
  11  -5  10 1217.73 90.1979   4
 -11   5  10 1391.28 96.5793   2
  11  -5  10 1140.38 107.788   2
 -11  -5  10 1087.75 51.6946   3
 -11   5  10 1269.13 97.5066   8
 -11  -5  10 720.151 96.6980   6
 -11   5  10 1127.29 91.2585   5
 -11  -5  12 1479.89 91.7488   4
  11   5  12 1028.16 107.896   4
  11  -5  12 1607.81 105.631   4
 -11  -5  12 1272.15 49.6002   3
  11  -5  12 1491.82 123.754   2
 -11   5  12 1603.43 113.072   8
 -11  -5  12 991.923 109.029   6
 -11   5  12 1460.17 101.886   5
  11  -5  14 648.494 68.9232   4
 -11   5  14 693.846 81.1374   8
 -11  -5  14 470.009 73.4773   6
 -11   5  14 528.075 62.4991   5
 -11  -5  16 616.707 78.4999   6
 -11   5  16 757.466 72.6307   5
 -11   6 -17 711.226 61.3011   5
 -11  -6 -15 405.053 58.3265   7
 -11   6 -15 334.478 44.4158   5
 -11  -6 -15 429.808 58.5431   6
 -11  -6 -13 341.361 59.4858   6
 -11   6 -13 308.611 44.4942   5
 -11  -6 -13 323.108 52.4084   7
  11  -6 -11 775.759 59.5399   1
 -11   6 -11 628.135 65.3733   7
 -11  -6 -11 499.337 72.3877   6
 -11   6 -11 613.621 61.8595   5
  11   6  -9 577.780 72.3867   8
 -11   6  -9 494.342 58.7157   7
 -11  -6  -9 489.657 66.9510   7
  11   6  -7 622.099 75.9163   8
 -11   6  -7 606.961 61.4507   7
 -11  -6  -7 507.319 80.9124   6
 -11   6  -7 556.011 59.8849   5
 -11  -6  -5 607.279 80.0539   4
 -11   6  -5 643.477 66.5222   4
 -11   6  -5 724.523 94.3129   3
  11  -6  -5 713.242 91.9087   1
  11   6  -5 427.920 63.8116   8
 -11  -6  -5 430.558 78.3945   6
 -11   6  -5 504.233 57.3628   7
 -11   6  -5 518.924 59.2287   5
 -11  -6  -3 329.054 57.4683   4
 -11   6  -3 299.964 46.5113   4
  11  -6  -3 363.451 71.4821   1
  11   6  -3 278.007 27.2670   2
  11   6  -3 235.451 50.0713   8
 -11   6  -3 233.798 41.9551   5
 -11  -6  -3 227.549 64.1100   6
  11  -6  -3 287.449 76.0507   6
 -11   6  -3 256.562 40.8536   7
 -11   6  -1 1033.80 79.9553   4
  11   6  -1 927.725 77.7838   4
 -11  -6  -1 937.547 87.3280   4
  11   6  -1 910.815 58.5209   2
  11  -6  -1 928.871 78.7004   2
  11   6  -1 754.594 93.7972   8
 -11   6  -1 855.830 75.2637   5
 -11   6  -1 763.536 71.1981   7
 -11  -6   1 995.772 86.2229   4
  11   6   1 866.243 79.4198   4
 -11   6   1 932.403 75.4740   4
  11  -6   1 767.003 74.7771   2
  11  -6   1 1071.51 119.084   1
  11   6   1 727.124 100.186   8
 -11   6   1 830.564 75.1816   5
  11  -6   1 1064.07 130.731   6
  11  -6   3 199.818 43.2765   2
  11  -6   3 277.915 65.8486   1
  11   6   3 216.604 44.8258   4
 -11   6   3 269.875 42.9871   4
 -11   6   3 252.043 43.1232   5
  11  -6   3 286.277 76.8555   6
 -11   6   3 212.462 40.3018   7
  11  -6   5 410.957 62.2071   2
 -11  -6   5 580.557 62.5467   4
  11   6   5 471.508 66.1557   4
 -11   6   5 539.684 62.7991   5
 -11  -6   5 366.294 78.7029   6
 -11  -6   7 755.813 68.3596   4
  11   6   7 579.101 75.1212   4
  11  -6   7 519.657 71.3177   2
 -11   6   7 642.200 60.2676   8
 -11  -6   7 436.929 87.3963   6
 -11   6   7 596.774 67.7940   5
  11   6   9 472.355 70.2458   4
 -11  -6   9 643.337 62.3223   4
  11  -6   9 595.322 62.9558   4
  11  -6   9 517.791 75.5192   2
 -11   6   9 703.566 71.8159   2
 -11   6   9 566.999 60.5429   8
  11   6  11 522.519 76.7088   4
 -11  -6  11 782.477 67.2258   4
  11  -6  11 746.284 70.6529   4
  11  -6  11 662.091 85.4785   2
 -11   6  11 697.147 68.8600   8
 -11  -6  11 497.670 84.9326   6
 -11   6  11 628.284 68.3279   5
  11  -6  13 447.208 57.0543   4
 -11   6  13 403.594 57.9808   8
 -11  -6  13 266.095 63.6597   6
 -11   6  13 286.560 50.0877   5
  11  -6  15 519.407 60.5244   4
 -11   6  15 420.036 63.6015   8
 -11  -6  15 292.554 62.9530   6
 -11   6  15 395.850 53.7341   5
  11  -6  17 876.041 76.3548   4
 -11   6  17 809.190 72.3837   5
 -11  -7 -16 871.605 82.2425   6
 -11   7 -16 858.896 69.0531   5
 -11  -7 -14 344.661 60.1721   6
 -11  -7 -14 426.305 58.8325   7
 -11   7 -14 459.243 52.1473   5
  11  -7 -12 596.871 38.5355   1
 -11   7 -12 443.181 52.6796   5
 -11  -7 -12 421.317 69.0967   6
 -11  -7 -12 460.273 62.5609   7
 -11   7 -10 1501.04 102.878   4
  11  -7 -10 1408.27 89.4360   1
  11   7 -10 1061.84 101.753   8
 -11   7 -10 989.361 81.1194   7
 -11  -7 -10 1050.00 111.794   6
  11   7  -8 1283.08 112.218   8
 -11   7  -8 1249.23 89.4916   7
 -11   7  -8 1199.56 86.3734   5
 -11  -7  -8 1132.06 100.100   7
  11   7  -6 1592.60 126.290   8
 -11   7  -6 1523.48 96.7811   7
 -11   7  -6 1679.27 103.463   5
 -11  -7  -4 558.315 76.3903   4
  11  -7  -4 717.267 95.0690   1
  11   7  -4 431.036 70.7083   8
  11  -7  -4 610.344 102.990   6
 -11   7  -4 424.037 52.0725   7
 -11   7  -4 424.914 54.3807   5
 -11  -7  -2 1117.95 98.5430   4
 -11   7  -2 1119.44 82.9508   4
  11   7  -2 1044.41 80.0538   4
  11   7  -2 1082.91 54.5264   2
  11  -7  -2 1054.75 85.0913   2
  11  -7  -2 1298.21 125.326   1
  11   7  -2 928.268 108.877   8
 -11   7  -2 858.622 76.4838   5
 -11   7   0 4784.85 175.278   4
  11   7   0 4424.42 178.849   4
  11   7   0 4716.77 148.544   2
  11  -7   0 4052.99 176.541   2
  11   7   0 3542.05 228.863   8
  11  -7   0 5641.07 285.200   6
 -11   7   0 3976.07 172.399   5
  11   7   2 1021.55 87.3322   4
 -11   7   2 1154.82 83.4075   4
  11  -7   2 884.397 82.6186   2
  11  -7   2 1238.03 125.720   1
  11   7   2 861.026 116.807   8
  11  -7   2 1276.45 138.692   6
 -11   7   2 950.790 77.0615   7
 -11   7   2 1061.84 86.0594   5
  11  -7   4 436.742 62.8984   2
  11  -7   4 640.052 94.2345   1
 -11  -7   4 555.134 62.2528   4
  11   7   4 548.147 68.3434   4
  11  -7   4 594.233 102.153   6
 -11   7   4 448.479 57.8282   5
 -11   7   4 434.508 54.2295   7
 -11  -7   6 1995.78 112.443   4
  11   7   6 1761.03 127.223   4
  11  -7   6 1600.73 119.275   2
 -11   7   6 1778.24 85.2491   8
 -11   7   6 1773.05 112.606   5
 -11   7   6 1815.63 108.175   7
 -11  -7   8 1656.97 100.287   4
  11  -7   8 1532.68 119.766   2
 -11   7   8 1543.88 87.2980   8
 -11  -7  10 1442.93 90.7852   4
  11  -7  10 1339.04 115.681   2
 -11   7  10 1210.11 83.7277   8
 -11   7  10 1201.53 96.5088   5
 -11  -7  12 560.506 57.1593   4
  11  -7  12 623.918 64.2026   4
 -11   7  12 576.866 64.8379   8
 -11   7  12 499.181 63.7687   5
  11  -7  14 522.516 58.2612   4
 -11   7  14 459.530 63.2977   8
 -11   7  14 371.429 54.3678   5
 -11  -7  14 281.295 65.9475   6
 -11  -7  16 605.045 84.8069   6
 -11   7  16 892.522 78.9316   5
 -11  -8 -17 8.74679 23.4625   6
  11   8 -15 331.753 54.9952   1
 -11  -8 -15 218.169 51.7008   6
 -11   8 -15 249.369 41.8364   5
 -11  -8 -13 734.314 89.2585   6
 -11  -8 -13 761.391 78.5375   7
 -11   8 -13 896.742 73.4260   5
  11  -8 -11 273.382 40.3623   1
 -11   8 -11 236.605 45.7683   7
 -11   8 -11 184.177 38.0289   5
 -11  -8 -11 145.923 51.8751   6
 -11  -8 -11 161.786 43.8569   7
 -11   8  -9 932.763 81.5362   4
  11   8  -9 775.591 93.7491   8
 -11   8  -9 662.571 66.7536   7
 -11   8  -7 1472.02 97.6490   4
  11   8  -7 1214.20 115.827   8
 -11   8  -7 1166.91 85.3678   7
 -11   8  -7 1213.83 87.9536   5
 -11   8  -5 750.058 70.5338   4
  11  -8  -5 804.527 89.0131   1
 -11   8  -5 638.408 62.1676   7
  11   8  -5 526.246 82.9385   8
 -11   8  -5 598.246 64.0348   5
 -11  -8  -3 1976.23 138.861   4
  11  -8  -3 1897.47 145.024   1
  11   8  -3 1925.72 60.7026   2
  11   8  -3 1628.09 144.291   8
 -11   8  -3 1536.48 102.288   5
 -11   8  -1 1873.09 105.409   4
  11   8  -1 1669.89 105.143   4
  11   8  -1 1752.83 74.7326   2
  11  -8  -1 2085.75 159.838   1
  11  -8  -1 1566.49 106.233   2
  11   8  -1 1281.99 142.048   8
 -11   8  -1 1452.39 99.7154   5
 -11   8  -1 1306.48 88.4379   7
  11   8   1 1382.96 99.8200   4
 -11  -8   1 1507.92 106.386   4
 -11   8   1 1613.67 99.7780   4
  11  -8   1 1210.67 95.9270   2
  11   8   1 1242.66 146.141   8
 -11   8   1 1298.43 94.6913   5
 -11   8   1 1154.49 81.7214   7
  11  -8   3 1461.60 109.388   2
  11  -8   3 2103.55 163.595   1
 -11  -8   3 1955.99 118.447   4
  11   8   3 1706.41 116.996   4
 -11   8   3 1556.74 106.216   5
 -11   8   3 1587.91 98.4722   7
 -11  -8   5 783.247 73.3748   4
  11   8   5 839.815 88.8279   4
  11  -8   5 681.545 79.3185   2
 -11   8   5 705.570 42.3507   8
 -11   8   5 802.411 77.0566   5
 -11   8   5 735.179 68.1090   7
  11   8   7 1021.88 101.440   4
 -11  -8   7 1340.25 90.6389   4
  11  -8   7 1141.22 102.425   2
 -11   8   7 1146.27 66.9478   8
 -11   8   7 1148.72 92.8142   5
 -11   8   7 1176.36 84.7187   7
  11   8   9 671.917 86.5107   4
 -11  -8   9 789.165 67.9915   4
  11  -8   9 677.235 83.7157   2
 -11   8   9 698.942 60.4192   8
 -11   8   9 676.501 73.7470   5
 -11   8   9 684.154 66.0855   7
 -11  -8  11 276.531 42.5941   4
 -11   8  11 254.773 42.7256   8
 -11   8  11 248.246 48.6307   5
 -11  -8  11 147.614 60.0653   6
 -11  -8  13 909.272 70.1740   4
 -11   8  13 933.277 80.7230   8
 -11   8  13 828.903 78.8528   5
  11  -8  15 319.192 46.1467   4
 -11  -8  15 203.986 60.0629   6
 -11   8  15 320.011 52.1290   5
  11  -8  17 21.1081 23.8213   4
 -11   8  17 2.02008 22.4689   5
 -11  -8  17-6.83883 36.2145   6
  11   9 -16 104.617 47.3455   1
 -11  -9 -16 137.943 44.4831   6
 -11   9 -16 96.4216 32.9251   5
 -11  -9 -14 526.038 81.8610   6
 -11  -9 -14 641.659 73.5525   7
 -11   9 -14 682.669 65.0436   5
  11   9 -12 366.315 69.6980   8
 -11  -9 -12 301.748 70.7068   6
 -11  -9 -12 311.487 54.5459   7
 -11   9 -12 349.429 49.8451   5
 -11   9 -10 682.675 69.6010   4
  11   9 -10 539.062 82.4310   8
 -11   9 -10 582.257 65.0413   7
 -11   9 -10 521.415 59.6332   5
 -11  -9 -10 448.912 65.6740   7
 -11   9  -8 536.963 62.0695   4
  11  -9  -8 630.687 69.4807   1
  11   9  -8 517.652 82.8123   8
 -11   9  -8 445.026 55.4518   7
 -11   9  -8 446.881 57.0920   5
 -11   9  -6 365.095 50.5385   4
  11  -9  -6 445.359 65.9774   1
  11   9  -6 381.486 74.6396   8
 -11   9  -6 278.356 45.0595   5
 -11   9  -4 539.655 59.6308   4
  11  -9  -4 552.477 77.4755   1
  11   9  -4 476.937 84.9192   8
 -11   9  -4 512.397 61.0015   5
  11  -9  -2 575.450 80.2042   1
  11   9  -2 485.723 31.6643   2
 -11   9  -2 446.129 52.2086   7
  11   9  -2 483.456 92.3275   8
 -11   9  -2 483.286 59.9873   5
 -11  -9   0 222.966 50.2201   4
  11  -9   0 148.585 38.6345   2
  11   9   0 179.831 28.1571   2
  11  -9   0 196.204 53.8454   1
  11   9   0 132.183 64.9169   8
 -11   9   0 159.236 33.0507   7
 -11   9   0 116.720 34.9525   5
  11  -9   2 396.082 58.3252   2
  11   9   2 480.434 62.8259   4
 -11  -9   2 537.456 66.3632   4
 -11   9   2 415.379 57.2378   5
 -11   9   2 457.220 51.9157   7
  11  -9   4 523.796 69.9634   2
 -11  -9   4 622.166 67.3901   4
  11   9   4 603.388 75.9702   4
 -11   9   4 524.997 64.6959   5
 -11   9   4 547.349 55.6286   7
  11   9   6 295.010 57.4817   4
 -11  -9   6 305.602 47.2369   4
  11  -9   6 272.052 54.9528   2
 -11   9   6 278.968 29.8613   8
 -11   9   6 251.758 47.6276   5
 -11   9   6 279.976 42.9548   7
  11   9   8 447.703 72.5532   4
 -11  -9   8 541.622 59.0240   4
  11  -9   8 457.646 68.7376   2
 -11   9   8 495.832 46.5150   8
 -11   9   8 508.579 54.9002   7
 -11  -9  10 687.438 63.0352   4
 -11   9  10 534.474 53.5018   8
 -11   9  10 588.523 70.4092   5
 -11   9  10 650.545 61.0632   7
 -11  -9  12 398.374 48.7671   4
 -11   9  12 340.021 49.1593   8
 -11   9  12 335.672 55.0934   5
 -11   9  12 367.161 48.2608   7
 -11   9  14 629.254 68.8883   8
 -11   9  14 699.403 74.0156   5
 -11   9  16 302.986 50.7691   5
  11  10 -15 379.809 61.4428   1
 -11 -10 -15 259.548 61.4971   6
 -11 -10 -13 614.383 94.9342   6
 -11 -10 -13 540.875 67.3151   7
 -11  10 -13 591.933 63.0676   5
  11  10 -11 1343.93 98.8175   1
  11  10 -11 1397.43 131.486   8
 -11 -10 -11 1186.72 100.967   7
 -11  10 -11 1276.07 92.5612   5
  11  10  -9 1976.87 160.274   8
 -11 -10  -9 1665.33 122.671   7
 -11  10  -7 252.781 44.2765   4
  11 -10  -7 277.320 52.0044   1
  11  10  -7 214.863 63.9359   8
 -11  10  -7 232.515 43.6131   5
 -11  10  -5 1525.74 95.9656   4
  11 -10  -5 1545.61 119.623   1
  11  10  -5 1429.48 142.247   8
 -11  10  -5 1140.91 83.2113   7
 -11  10  -5 1317.91 96.5390   5
 -11  10  -3 5099.08 182.417   4
  11  10  -3 5091.83 179.579   4
  11 -10  -3 5166.22 230.965   1
 -11  10  -3 4309.64 167.050   7
  11  10  -3 4817.82 281.196   8
 -11  10  -3 4509.61 187.198   5
 -11 -10  -1 477.001 71.8483   4
  11  10  -1 491.998 59.4964   4
  11  10  -1 469.897 34.3014   2
  11 -10  -1 449.910 73.8402   1
 -11  10  -1 382.061 47.2650   7
  11  10  -1 350.294 91.0547   8
 -11  10  -1 393.434 57.8047   5
 -11 -10   1 425.991 65.6411   4
  11 -10   1 348.224 56.6179   2
  11  10   1 383.571 96.0301   8
 -11  10   1 324.310 43.4593   7
 -11  10   1 354.660 54.5278   5
  11 -10   3 3872.19 185.586   2
 -11 -10   3 5221.81 202.581   4
  11  10   3 5100.08 208.827   4
 -11  10   3 4424.93 189.934   5
 -11  10   3 4452.38 161.580   7
 -11 -10   5 1386.20 94.8541   4
  11  10   5 1378.01 112.730   4
  11 -10   5 1198.71 104.160   2
 -11  10   5 1146.76 51.1100   8
 -11  10   5 1252.17 99.5433   5
 -11  10   5 1421.60 85.3180   7
 -11 -10   7 182.153 39.8001   4
  11  10   7 165.067 48.3058   4
  11 -10   7 252.478 53.7600   2
 -11  10   7 198.533 28.5550   8
 -11  10   7 248.709 38.0924   7
  11  10   9 1728.33 141.581   4
 -11 -10   9 2121.52 110.642   4
 -11  10   9 1931.62 93.3245   8
 -11  10   9 1678.53 117.721   5
 -11  10   9 1984.66 98.0756   7
 -11 -10  11 1463.55 89.5904   4
 -11  10  11 1350.88 85.0758   8
 -11  10  11 1521.36 84.5349   7
 -11  10  11 1381.19 105.684   5
 -11  10  13 600.675 63.1512   8
 -11  10  13 649.600 72.8773   5
 -11  10  15 305.052 52.2043   5
  11  11 -14 115.601 47.8384   1
  11  11 -12 49.3877 34.5985   1
 -11 -11 -12 36.2149 31.5092   7
  11  11 -10 304.511 53.9158   1
  11  11 -10 258.100 67.4320   8
 -11 -11 -10 256.069 53.5083   7
 -11  11  -8 48.3320 28.3774   4
  11 -11  -8 41.1736 36.3202   1
 -11  11  -8 37.7095 27.4665   7
  11  11  -8 47.8414 44.4952   8
 -11  11  -8 31.7969 25.7970   5
 -11  11  -6 19.3459 25.1546   4
  11 -11  -6 2.55462 31.4924   1
 -11  11  -6 10.5953 22.7785   7
  11  11  -6 24.8814 42.8112   8
 -11  11  -6 12.1069 23.7251   5
 -11  11  -4 278.444 45.3862   4
  11 -11  -4 245.947 56.4232   1
 -11  11  -4 216.586 40.5266   7
  11  11  -4 206.910 71.8686   8
 -11  11  -4 244.205 46.6868   5
  11  11  -2 51.4606 27.9500   4
  11 -11  -2 50.8944 37.0363   1
  11  11  -2 45.5374 6.95140   2
  11  11  -2 43.0967 49.7386   8
 -11  11  -2 68.6417 30.3021   5
 -11  11  -2 43.8667 24.3527   7
  11  11   0 27.1851 26.7592   4
  11  11   0 54.5116 19.1528   2
  11  11   0 16.9306 51.1495   8
 -11  11   0 66.3857 31.6707   5
 -11  11   0 33.7689 21.8415   7
  11 -11   2 21.5587 27.6336   2
 -11 -11   2 47.9177 34.9268   4
 -11  11   2 52.6380 33.1143   5
 -11  11   2 34.3237 21.8127   7
 -11 -11   4 305.476 51.7591   4
  11 -11   4 224.876 50.9738   2
 -11  11   4 223.714 36.2942   7
 -11  11   4 236.633 47.8856   5
  11  11   6 35.8805 32.4510   4
 -11 -11   6 22.5273 25.8290   4
  11 -11   6 18.4350 28.7904   2
 -11  11   6 22.7895 14.6012   8
 -11  11   6 39.1160 30.5119   5
 -11  11   6 29.1907 21.3980   7
  11  11   8 15.4700 33.2486   4
 -11 -11   8 8.38104 25.0851   4
 -11  11   8 30.4481 19.4527   8
 -11  11   8 28.2131 27.5298   5
 -11  11   8 24.0886 18.8387   7
 -11 -11  10 356.388 46.7545   4
 -11  11  10 332.636 41.8438   8
 -11  11  10 334.440 38.2160   7
 -11  11  10 283.946 53.5404   5
 -11 -12 -13 222.766 47.9590   7
 -11 -12 -11 64.2434 36.9118   7
  11  12  -9 87.0455 36.9934   1
  11 -12  -9 69.7896 29.1762   1
 -11 -12  -9 40.0983 31.4485   7
  11 -12  -7 608.729 82.1241   1
  11  12  -7 485.705 94.7986   8
 -11  12  -7 338.711 50.7298   7
  11 -12  -5 76.3475 42.8057   1
 -11  12  -5 62.3954 28.7469   7
  11  12  -5 92.8540 57.9143   8
  11  12  -3 1.55995 23.9010   4
  11  12  -3-16.4497 57.4056   8
 -11  12  -3 14.7789 20.9567   7
 -11  12  -3 8.64367 25.6878   5
  11  12  -1 315.466 50.0387   4
  11  12  -1 273.838 20.6563   2
  11  12  -1 269.768 89.5543   8
 -11  12  -1 241.752 39.9691   7
 -11  12  -1 236.742 49.1756   5
  11  12   1 293.922 51.5494   4
  11  12   1 316.267 37.6919   2
  11  12   1 243.351 84.9397   8
 -11  12   1 243.355 39.4460   7
 -11  12   1 300.154 54.2699   5
  11 -12   3 5.05127 24.9261   2
  11  12   3 16.6154 30.3109   4
 -11 -12   3 24.2141 34.0732   4
 -11  12   3-2.32016 26.3219   5
 -11  12   3 15.6866 19.4662   7
 -11 -12   5 105.222 37.5865   4
 -11  12   5 111.882 19.1223   8
 -11  12   5 109.078 39.5818   5
 -11  12   5 113.254 27.5323   7
 -11 -12   7 421.243 54.9404   4
 -11  12   7 414.837 37.6251   8
 -11  12   7 441.745 44.2050   7
 -11 -12   9 70.1819 28.7006   4
 -11  12   9 75.7681 25.3894   8
 -11  12   9 77.1757 23.5604   7
  11  12  11 47.5991 44.6471   3
 -11 -13 -12 942.943 90.5668   7
 -11 -13 -10 133.133 43.5694   7
  11 -13  -8 1297.84 97.0609   1
  11  13  -6 3115.30 226.034   8
 -11  13  -6 2556.37 132.332   7
  11  13  -4 16.5535 54.0979   8
 -11  13  -4 38.5201 24.6666   7
  11  13  -2 925.481 75.7937   4
 -11  13  -2 739.197 66.3639   7
  11  13  -2 836.362 139.999   8
  11  13   0 4983.16 192.275   4
  11  13   0 4126.88 304.065   8
 -11  13   0 4041.41 157.569   7
  11  13   0 4686.62 114.500   2
  11  13   2 810.786 80.8652   4
 -11  13   2 668.252 58.9310   7
  11  13   4 62.4441 36.9587   4
 -11 -13   4 44.6724 33.1198   4
 -11  13   4 37.9980 21.3459   7
 -11  13   4 32.6070 12.7143   8
 -11  13   4 35.5201 24.1549   8
 -11 -13   6 2966.64 147.107   4
 -11  13   6 2892.25 113.041   7
  11  14 -11 539.054 73.1967   9
 -11 -14  -9 299.517 58.9007   7
  11  14  -3 367.098 46.9144   4
 -11  14  -3 327.606 48.0334   7
  11  14  -1 703.583 68.3001   4
  11  14  -1 571.339 125.209   8
 -11  14  -1 556.304 57.6954   7
  11  14   1 700.259 73.6601   4
  11  14   1 605.555 130.473   8
 -11  14   1 616.359 58.1472   7
  11  14   1 696.398 45.5204   2
  11  14   3 355.576 59.7700   4
 -11  14   3 348.708 42.7910   7
 -11 -14   5 476.680 64.4593   4
 -11  14   5 421.341 43.7687   7
 -11  15  -4 271.355 46.0051   7
  11  15  -2 415.573 51.2779   4
 -11  15  -2 329.132 47.8139   7
  11  15   0 1487.54 101.800   4
 -11  15   0 1225.57 82.6803   7
  11  15   2 380.921 57.7894   4
 -11  15   2 322.991 41.9732   7
  11  16  -3 821.623 65.2644   4
  11  16  -1 80.7066 30.0801   4
  11  16   1 119.607 36.9813   4
 -12   0 -16 538.658 54.4930   5
  12   0 -14 3.82735 14.6034   1
  12   0 -14 5.87316 29.0522   1
 -12   0 -14 3.25797 17.8712   5
 -12   0 -12 9.06284 22.9093   5
 -12   0 -12 2.11702 21.2342   7
 -12   0 -10 881.490 78.8110   5
 -12   0 -10 834.758 79.8971   7
 -12   0  -8 112.825 34.7919   5
 -12   0  -8 92.7662 34.3268   7
 -12   0  -6 672.533 74.3684   7
  12   0  -4 301.961 39.3192   2
 -12   0  -4 338.041 54.2123   4
 -12   0  -4 221.096 45.6391   7
 -12   0  -4 251.206 47.8277   6
  12   0  -2 82.6164 25.8576   2
 -12   0  -2 89.5578 42.5818   3
 -12   0  -2 61.5042 31.3515   4
 -12   0  -2 54.5226 28.6117   6
 -12   0   0 1986.09 120.073   4
 -12   0   0 1981.31 134.506   3
 -12   0   0 1733.76 122.296   6
 -12   0   2 67.6703 34.0983   3
 -12   0   2 76.1614 30.8623   4
  12   0   2 39.2199 25.1834   4
 -12   0   2 35.9666 27.9499   6
  12   0   4 263.226 48.7906   2
 -12   0   4 330.227 49.6903   4
  12   0   4 213.135 43.6700   4
 -12   0   4 269.851 51.9015   6
  12   0   6 518.436 71.1871   2
  12   0   6 629.476 73.3793   4
 -12   0   6 614.674 75.1638   6
  12   0   8 129.953 39.9338   4
  12   0   8 97.7380 40.8280   2
 -12   0  10 759.200 84.1446   5
  12   0  10 876.915 90.2115   4
  12   0  12 26.3285 30.5929   4
 -12   0  12 4.82271 27.9831   5
  12   0  12 9.69643 15.8420   8
 -12   0  14 7.13824 24.0095   5
 -12   0  14-9.03713 51.3208   8
 -12   0  16 407.168 57.0273   5
 -12  -1 -17 58.3952 24.1901   5
 -12   1 -17 31.7905 21.8899   5
 -12   1 -15 32.6288 22.8215   5
 -12  -1 -15 23.1518 23.1302   5
 -12   1 -13 333.416 45.6646   5
 -12  -1 -13 338.466 50.9957   5
 -12   1 -11 264.159 43.6864   5
 -12   1 -11 328.529 51.2522   7
 -12  -1 -11 286.185 49.3053   7
 -12  -1 -11 269.351 46.8323   5
 -12   1  -9 542.475 63.5874   7
 -12  -1  -9 515.977 64.4949   7
 -12   1  -7 182.367 39.2189   5
 -12  -1  -7 181.765 42.3367   6
 -12   1  -7 199.364 41.8668   7
 -12  -1  -7 174.747 41.3011   7
 -12   1  -5 422.824 58.9362   7
 -12  -1  -5 357.557 58.2045   7
 -12   1  -5 407.177 56.2111   5
 -12  -1  -5 508.581 65.2627   6
 -12  -1  -3 2037.73 144.640   3
  12  -1  -3 1883.57 99.1402   2
  12   1  -3 1892.53 93.8043   2
 -12   1  -3 1468.00 105.628   5
 -12  -1  -3 1942.29 123.777   4
 -12  -1  -3 1534.41 114.857   6
 -12   1  -3 1460.03 109.807   7
  12   1  -1 156.826 32.4347   2
 -12   1  -1 136.204 42.8877   3
 -12  -1  -1 145.499 44.6784   3
 -12   1  -1 192.463 41.6474   4
 -12  -1  -1 160.351 41.1709   4
 -12  -1  -1 88.3105 34.5187   6
 -12   1   1 80.3046 34.9612   3
 -12  -1   1 103.776 36.9986   3
 -12   1   1 59.1716 28.8398   4
 -12  -1   1 107.768 33.5171   4
  12   1   1 89.8103 31.3861   4
 -12  -1   1 80.4468 32.9360   6
  12  -1   3 1583.47 110.552   2
 -12  -1   3 1779.73 115.648   3
 -12   1   3 1853.76 112.283   4
 -12  -1   3 1730.13 108.172   4
  12  -1   3 1460.79 105.411   4
  12   1   3 1476.61 107.604   4
 -12  -1   3 1442.90 116.145   6
 -12  -1   5 466.776 58.4404   4
 -12   1   5 289.166 51.9470   5
  12  -1   5 387.512 57.3305   4
  12   1   5 324.534 53.4569   4
  12  -1   5 309.513 54.5529   2
  12   1   5 324.326 55.2090   2
  12   1   5 298.071 18.3057   8
 -12  -1   5 339.365 58.4231   6
 -12   1   7 174.959 44.2663   5
  12  -1   7 250.409 49.7042   4
  12   1   7 229.130 48.3614   4
  12  -1   7 146.566 46.4390   2
  12   1   7 166.808 45.7418   2
  12   1   7 222.647 36.4527   8
 -12  -1   7 160.995 43.6889   6
  12  -1   9 516.260 69.0229   4
  12   1   9 427.329 64.5600   4
  12  -1   9 464.342 72.4600   2
  12   1  11 226.779 51.8919   4
 -12   1  11 222.112 48.7030   5
  12  -1  11 306.106 55.9783   4
  12   1  11 311.715 29.3809   8
  12  -1  11 332.222 33.7151   8
 -12   1  13 412.778 51.0466   2
  12   1  13 464.348 39.8944   8
 -12   1  13 500.407 91.6805   8
  12  -1  13 506.384 47.3853   8
 -12   1  13 353.278 57.2875   5
 -12  -1  13 339.522 59.5074   5
 -12   1  15 51.3510 27.5236   2
 -12  -1  15 51.0017 33.1652   5
 -12   1  15 43.0742 27.4157   5
 -12  -1  17 17.9068 27.6122   5
 -12   1  17 18.6364 22.9019   5
 -12   2 -16 410.872 49.0555   5
 -12  -2 -16 415.582 50.1863   5
  12   2 -14 523.873 44.9516   1
  12  -2 -14 464.469 25.7763   1
 -12  -2 -14 372.134 51.4928   5
 -12   2 -14 367.707 47.7672   5
 -12  -2 -12 504.603 60.3233   5
 -12   2 -12 460.750 61.3809   7
 -12   2 -12 437.869 51.9801   5
 -12  -2 -12 442.829 60.2857   7
 -12   2 -10 1038.55 86.8979   7
 -12  -2 -10 1049.60 90.0151   7
 -12   2 -10 939.976 77.6060   5
 -12  -2 -10 1011.71 88.5308   6
 -12   2  -8 329.053 49.3390   5
 -12   2  -8 363.454 52.5165   7
 -12  -2  -8 427.292 60.8993   7
 -12  -2  -8 430.234 59.2496   6
 -12   2  -6 267.695 66.3420   3
 -12  -2  -6 233.404 46.9605   6
 -12   2  -6 221.908 44.8315   7
 -12   2  -6 235.487 44.0817   5
 -12  -2  -6 188.244 44.0539   7
 -12   2  -4 1864.64 144.398   3
 -12  -2  -4 1926.59 144.127   3
 -12   2  -4 1874.40 118.615   4
 -12  -2  -4 1478.49 116.134   6
 -12   2  -4 1330.03 99.8407   5
 -12   2  -4 1403.31 103.203   7
 -12  -2  -2 1194.80 107.280   3
 -12  -2  -2 1180.60 96.4576   4
 -12  -2  -2 990.185 97.5626   6
 -12   2  -2 865.617 84.7787   7
 -12   2  -2 843.025 79.8998   5
 -12   2   0-3.83599 25.2963   4
 -12   2   0-2.09098 25.7684   5
  12   2   0-4.00864 20.7000   4
 -12  -2   0 6.31648 23.6814   4
  12  -2   0 5.35761 20.2939   2
  12   2   0 3.02616 17.1827   2
 -12  -2   0 16.5291 27.5795   3
  12   2   0 11.0764 12.2742   8
 -12  -2   0 8.24566 24.7078   6
 -12   2   2 1224.65 91.0617   4
 -12  -2   2 1106.66 89.2128   4
  12   2   2 924.247 84.7724   4
  12  -2   2 1004.36 85.0145   2
  12   2   2 1093.13 86.8111   2
 -12  -2   2 1153.36 94.0035   3
  12   2   2 1372.41 61.2718   8
 -12  -2   2 873.670 94.9256   6
 -12   2   2 913.302 85.9436   5
 -12  -2   4 1747.81 109.131   4
  12  -2   4 1407.45 102.681   4
  12   2   4 1323.64 104.696   4
 -12  -2   4 1639.52 106.761   3
  12  -2   4 1359.27 106.364   2
  12   2   4 1811.67 85.2829   8
 -12  -2   4 1421.55 120.758   6
 -12   2   4 1393.94 106.283   5
 -12  -2   6 297.460 48.1634   4
 -12  -2   6 351.771 49.1694   3
  12  -2   6 277.248 50.3564   4
  12   2   6 264.940 50.8557   4
  12  -2   6 239.668 51.1540   2
  12   2   6 244.420 46.2837   8
 -12  -2   6 211.418 52.5480   6
 -12   2   6 254.436 49.4916   5
  12  -2   8 433.883 68.5064   2
  12  -2   8 492.987 66.0562   4
  12   2   8 427.744 65.5532   4
  12  -2  10 995.425 105.203   2
  12  -2  10 1198.58 100.919   4
  12   2  10 908.241 94.1966   4
 -12   2  10 1021.45 92.4049   5
 -12  -2  10 862.221 93.9767   6
  12   2  12 573.236 79.8633   4
 -12   2  12 574.105 61.7778   2
  12  -2  12 582.479 83.2580   2
 -12   2  12 739.968 100.837   8
  12  -2  12 716.106 52.4652   8
 -12   2  12 452.154 63.3306   5
 -12  -2  12 576.237 75.9276   6
 -12   2  14 409.891 54.2306   2
 -12   2  14 455.946 89.5607   8
  12   2  14 464.505 41.4249   8
 -12   2  14 401.950 57.1980   5
 -12  -2  16 341.926 56.9917   5
 -12   3 -17 318.936 43.1291   5
 -12  -3 -17 320.867 44.6829   5
 -12  -3 -15 684.662 68.4375   5
 -12   3 -15 691.433 63.6072   5
  12  -3 -13 2608.09 103.908   1
 -12   3 -13 1685.76 104.148   5
 -12   3 -11 1726.83 111.946   7
 -12   3 -11 1608.24 100.255   5
 -12  -3 -11 1831.25 119.415   7
 -12  -3 -11 1719.85 115.215   6
 -12   3  -9 2491.80 135.202   7
 -12  -3  -9 2547.96 148.691   7
 -12  -3  -7 1868.37 130.193   6
 -12   3  -7 1619.78 107.212   7
 -12   3  -7 1747.37 106.846   5
 -12  -3  -7 1705.07 119.555   7
 -12  -3  -5 2504.39 159.230   6
 -12   3  -5 2660.84 137.003   5
 -12   3  -5 2571.02 141.457   7
 -12   3  -3 8016.42 252.896   4
 -12   3  -3 7403.33 293.511   3
  12   3  -3 7555.72 198.388   8
 -12  -3  -3 5524.19 248.190   6
 -12   3  -3 6010.38 222.896   5
 -12   3  -3 5714.49 223.672   7
 -12   3  -1 2485.37 131.480   4
 -12  -3  -1 2408.44 137.846   4
 -12  -3  -1 2514.16 150.772   3
  12  -3  -1 2207.25 119.938   2
  12   3  -1 2523.33 106.908   8
 -12  -3  -1 1791.47 139.673   6
 -12   3  -1 2220.98 129.294   5
 -12   3  -1 2000.02 124.221   7
 -12   3   1 2656.06 133.996   4
 -12  -3   1 2604.79 139.313   4
  12   3   1 2258.63 131.619   4
  12  -3   1 2238.31 126.852   2
  12   3   1 2373.55 123.010   2
 -12  -3   1 2531.73 139.681   3
  12   3   1 2564.08 114.102   8
 -12  -3   1 1759.94 139.048   6
 -12   3   1 1976.16 125.415   5
 -12  -3   3 7178.45 234.076   4
  12   3   3 5806.63 227.331   4
  12  -3   3 5389.25 220.393   2
  12   3   3 6078.09 221.502   2
 -12  -3   3 7070.47 228.810   3
  12   3   3 6151.86 210.631   8
 -12  -3   3 5120.93 247.841   6
 -12   3   3 5753.27 223.988   5
 -12  -3   5 2878.46 140.054   4
  12  -3   5 2579.75 139.594   4
  12   3   5 2165.28 143.099   4
  12  -3   5 2145.06 142.394   2
 -12  -3   5 2766.77 129.836   3
  12   3   5 2449.05 146.265   8
 -12  -3   5 2131.65 155.147   6
 -12   3   5 2462.36 142.271   5
  12  -3   7 1911.28 136.989   2
 -12  -3   7 2248.61 111.226   3
  12  -3   7 2241.17 131.652   4
  12   3   7 1708.62 127.821   4
 -12  -3   7 1804.44 142.822   6
 -12   3   7 1891.08 125.803   5
  12  -3   9 2618.98 165.831   2
 -12  -3   9 2974.21 122.039   3
  12   3  11 1739.32 136.597   4
  12  -3  11 1626.40 135.949   2
 -12   3  11 1981.35 114.244   2
 -12   3  11 1995.02 149.591   8
 -12  -3  11 1347.80 120.030   6
 -12   3  11 1540.98 109.819   5
  12  -3  13 2488.67 144.113   4
 -12   3  13 2138.87 165.792   8
 -12   3  13 1692.03 112.365   5
 -12  -3  13 1521.13 122.566   6
 -12   3  15 657.513 72.0877   5
 -12  -3  17 279.740 52.5218   5
 -12   3  17 337.483 52.0794   5
 -12   4 -16 723.761 64.1588   5
 -12  -4 -16 692.883 67.0666   5
  12   4 -14 677.368 57.9493   1
 -12   4 -14 495.851 55.5787   5
  12  -4 -12 1188.03 79.3685   1
 -12  -4 -12 881.620 84.6656   7
 -12   4 -12 943.946 76.2340   5
 -12  -4 -12 949.379 86.4897   6
 -12   4 -10 2169.29 124.354   7
 -12  -4 -10 2272.63 141.233   6
 -12  -4 -10 2279.85 138.996   7
 -12   4 -10 2210.51 121.048   5
 -12   4  -8 863.573 74.4980   5
 -12   4  -8 965.041 81.7277   7
 -12  -4  -8 833.773 86.0705   7
  12   4  -6 686.181 64.9031   8
 -12  -4  -6 461.698 70.3270   6
 -12   4  -6 548.076 60.8226   5
 -12   4  -6 486.769 59.2697   7
 -12  -4  -6 437.845 65.2444   7
 -12   4  -4 3844.18 170.016   4
  12   4  -4 3634.62 147.351   8
 -12  -4  -4 2637.92 173.250   6
 -12   4  -4 2955.88 143.392   5
 -12   4  -4 2919.65 148.605   7
 -12   4  -2 3106.50 148.321   4
 -12   4  -2 3109.60 181.157   3
  12  -4  -2 2854.52 137.473   2
  12   4  -2 3035.31 136.855   8
 -12  -4  -2 2148.36 155.700   6
 -12   4  -2 2442.89 135.291   7
 -12   4  -2 2390.22 132.651   5
 -12   4   0 118.648 35.6625   4
 -12   4   0 98.0559 32.3705   5
  12   4   0 108.253 33.4130   4
 -12  -4   0 104.294 36.5620   4
  12  -4   0 105.039 32.0354   2
  12   4   0 152.072 37.1188   8
 -12  -4   0 96.8024 45.6443   6
 -12   4   0 103.365 36.0464   7
 -12  -4   2 3124.25 153.439   4
  12   4   2 2805.50 149.925   4
  12  -4   2 2500.49 141.059   2
  12   4   2 3148.67 142.536   2
 -12  -4   2 2671.55 139.026   3
  12   4   2 2436.42 143.939   8
 -12  -4   2 2131.07 160.859   6
 -12   4   2 2377.71 138.690   5
 -12  -4   4 3637.68 160.396   4
  12   4   4 2841.46 159.104   4
  12  -4   4 2572.83 152.667   2
 -12  -4   4 3307.25 140.602   3
  12   4   4 3069.63 157.176   2
  12   4   4 2903.92 175.490   8
 -12  -4   4 2458.79 173.159   6
 -12   4   4 2700.79 147.924   5
  12  -4   6 467.618 68.8050   2
  12  -4   6 656.985 70.7415   4
  12   4   6 524.326 70.9026   4
 -12  -4   6 409.692 73.2123   6
 -12   4   6 489.481 63.2186   5
  12  -4   8 902.445 95.4555   2
 -12  -4   8 1038.09 66.9970   3
  12   4   8 770.821 88.5839   4
 -12  -4  10 2493.03 99.8902   3
  12  -4  10 2796.38 148.379   4
  12   4  10 1927.24 145.525   4
  12  -4  10 2460.56 164.637   2
 -12   4  10 2677.09 137.865   2
 -12   4  10 2486.97 153.534   8
 -12  -4  10 1951.36 154.057   6
 -12   4  10 2272.13 133.551   5
  12  -4  12 1162.54 95.9991   4
 -12  -4  12 1099.65 60.2111   3
 -12   4  12 1042.92 111.151   8
 -12   4  12 936.861 86.5413   5
  12  -4  14 601.730 71.7335   4
 -12   4  14 527.992 86.3532   8
 -12  -4  14 392.789 66.0556   6
 -12   4  14 463.858 62.3451   5
 -12   4  16 714.069 72.8381   5
 -12  -5 -17 40.8686 25.5098   5
 -12   5 -17 50.1905 23.9298   5
  12   5 -15 551.354 62.1226   1
 -12   5 -15 255.921 40.2244   5
 -12  -5 -13 781.949 80.1220   6
 -12   5 -13 721.908 67.2608   5
  12  -5 -11 614.447 64.9849   1
 -12  -5 -11 426.516 64.4758   6
 -12   5 -11 410.443 51.8658   5
 -12  -5 -11 414.612 61.4343   7
 -12   5  -9 691.822 71.5425   7
 -12  -5  -9 697.791 78.4602   7
  12   5  -7 925.068 82.1319   8
 -12   5  -7 725.401 70.9041   5
 -12   5  -7 864.036 76.7836   7
 -12  -5  -7 728.032 82.6636   7
  12   5  -5 1005.15 85.2744   8
 -12   5  -5 905.537 77.1701   5
 -12  -5  -5 846.806 100.342   6
 -12   5  -5 814.898 75.6266   7
  12   5  -3 2107.62 124.685   8
 -12  -5  -3 1604.18 141.513   6
 -12   5  -3 1759.25 111.001   5
 -12   5  -3 2096.71 120.891   7
  12   5  -1 864.844 78.6813   4
  12  -5  -1 803.101 75.4873   2
  12   5  -1 669.683 74.6850   8
 -12  -5  -1 587.959 90.0645   6
 -12   5  -1 665.931 69.6601   5
 -12   5  -1 663.674 69.3458   7
 -12  -5   1 1056.04 91.5577   4
  12   5   1 933.078 85.3006   4
  12  -5   1 891.285 82.5635   2
  12   5   1 953.650 74.1513   2
  12   5   1 764.825 87.6082   8
 -12  -5   1 717.439 100.543   6
 -12   5   1 858.502 78.4829   5
  12   5   3 2083.08 133.218   4
  12  -5   3 1814.27 124.535   2
  12   5   3 2333.00 128.054   2
  12   5   3 1886.63 151.193   8
 -12  -5   3 1629.72 148.796   6
 -12   5   3 2022.68 121.555   5
  12  -5   5 760.665 82.5071   2
 -12  -5   5 791.781 62.2930   3
  12   5   5 808.201 85.7497   4
 -12   5   5 868.360 80.9892   5
  12  -5   7 873.775 93.6703   2
 -12  -5   7 978.167 62.1199   3
  12   5   7 767.342 86.2365   4
 -12   5   7 702.526 74.3029   5
 -12  -5   7 546.709 89.5499   6
  12  -5   9 967.954 85.6936   4
  12   5   9 763.958 91.4841   4
  12  -5   9 949.071 100.296   2
 -12  -5   9 797.197 49.7002   3
 -12   5   9 852.359 83.2155   8
 -12   5   9 851.636 82.3763   5
  12  -5  11 460.165 61.9173   4
 -12  -5  11 324.091 27.9965   3
 -12   5  11 438.894 70.4653   8
 -12  -5  11 287.214 65.1663   6
 -12   5  11 358.209 55.9783   5
  12  -5  13 1081.58 91.3159   4
 -12   5  13 893.923 100.648   8
 -12   5  13 873.162 82.8547   5
 -12  -5  15 119.851 44.4838   6
 -12   5  15 230.009 47.3348   5
 -12  -5  17 22.5891 30.2856   6
 -12   5  17 26.7814 25.2480   5
 -12   6 -16 375.485 48.9560   5
  12   6 -14 13.5995 25.8165   1
 -12  -6 -14 24.0788 28.8051   6
 -12   6 -14 12.0363 21.4269   5
  12  -6 -12 72.3399 24.0974   1
 -12  -6 -12 86.1973 38.2230   6
 -12  -6 -12 61.1589 31.2938   7
 -12   6 -12 45.9111 25.2569   5
 -12   6 -10 581.727 66.3274   7
 -12  -6 -10 651.157 84.4097   6
 -12   6 -10 595.674 63.5231   5
  12  -6  -8 234.577 58.2163   1
  12   6  -8 228.563 47.5149   8
 -12   6  -8 153.746 37.5403   7
 -12   6  -8 187.988 39.5689   5
 -12  -6  -8 130.929 40.8939   7
  12   6  -6 428.017 64.0625   8
 -12   6  -6 362.548 51.5844   7
 -12   6  -6 372.385 53.0008   5
  12  -6  -4 362.668 76.5715   1
  12   6  -4 255.535 51.3164   8
 -12  -6  -4 171.483 57.4608   6
 -12   6  -4 270.724 45.4853   7
 -12   6  -4 251.506 44.3844   5
  12   6  -2 202.019 40.7247   4
  12  -6  -2 162.970 37.9636   2
  12  -6  -2 255.041 73.2654   1
  12   6  -2 179.363 45.7354   8
 -12   6  -2 169.722 38.7818   5
 -12  -6  -2 113.622 50.1570   6
  12   6   0 1352.00 100.628   4
  12  -6   0 1215.85 95.5420   2
  12   6   0 1103.56 111.314   8
 -12   6   0 1215.53 94.1956   5
  12   6   2 170.907 43.6267   4
  12  -6   2 221.699 45.7767   2
  12   6   2 254.576 42.8542   2
  12   6   2 202.021 63.1514   8
 -12   6   2 166.004 38.5570   5
 -12  -6   2 70.4845 47.5951   6
 -12   6   2 140.407 36.8394   7
 -12  -6   4 311.216 50.0881   4
  12   6   4 244.247 50.3082   4
  12  -6   4 209.267 47.7024   2
  12   6   4 246.897 64.8917   8
 -12   6   4 267.653 48.7635   5
 -12  -6   4 225.704 66.1001   6
 -12   6   4 223.843 44.5582   7
  12  -6   6 330.644 58.8958   2
 -12  -6   6 479.400 60.7416   4
  12   6   6 317.938 58.7097   4
 -12  -6   6 219.799 65.5435   6
 -12   6   6 378.654 57.1316   5
  12   6   8 233.025 54.0501   4
  12  -6   8 219.078 52.6676   2
 -12   6   8 219.418 43.7034   8
  12  -6  10 682.553 71.5052   4
  12  -6  10 656.650 84.6959   2
 -12   6  10 635.325 74.0328   8
 -12  -6  10 425.603 80.6746   6
 -12   6  10 654.795 72.4338   5
  12  -6  12 107.155 35.7733   4
 -12   6  12 89.1505 40.4892   8
 -12   6  12 38.2763 29.1115   5
 -12  -6  12 33.3785 40.7586   6
  12  -6  14 6.04933 25.8511   4
 -12   6  14 27.1918 37.7763   8
 -12  -6  14 3.54638 33.8896   6
 -12   6  14 2.26674 27.3842   5
 -12   6  16 388.360 55.9969   5
 -12  -6  16 283.404 58.8513   6
  12   7 -15 38.4436 36.0156   1
 -12  -7 -15 37.5096 30.9051   6
 -12   7 -15 21.1446 23.6234   5
  12   7 -13 365.578 48.9894   1
 -12   7 -13 247.790 42.9125   5
 -12  -7 -13 276.764 57.8472   6
  12  -7 -11 64.7218 27.5580   1
  12   7 -11 59.9101 33.3053   8
 -12  -7 -11 31.4256 34.5732   6
 -12   7 -11 30.6103 24.3676   5
 -12  -7 -11 25.3681 27.5697   7
  12   7  -9 172.851 45.5546   8
 -12  -7  -9 103.917 47.5571   6
 -12   7  -9 111.830 33.1850   7
  12   7  -7 182.200 49.5787   8
 -12  -7  -7 169.879 58.2142   6
 -12   7  -7 204.465 40.6886   5
 -12   7  -7 178.612 37.8932   7
  12  -7  -5 178.908 57.6616   1
  12   7  -5 97.8979 41.9719   8
 -12   7  -5 114.697 33.7849   5
 -12  -7  -5 97.8295 47.6944   6
 -12   7  -5 121.682 32.7490   7
  12   7  -3 758.018 42.5381   2
  12   7  -3 579.323 80.8682   8
 -12  -7  -3 457.480 90.6056   6
 -12   7  -3 617.484 67.3079   5
  12   7  -1 108.636 34.0728   4
  12  -7  -1 104.659 32.4363   2
  12  -7  -1 163.912 56.9729   1
  12   7  -1 150.115 49.4355   8
 -12  -7  -1 39.7516 43.2763   6
 -12   7  -1 83.8331 30.1763   5
  12   7   1 104.272 34.7406   4
  12  -7   1 64.3477 29.6982   2
  12   7   1 66.1960 49.4945   8
 -12  -7   1 58.6315 47.7118   6
 -12   7   1 44.4317 27.2884   5
 -12   7   1 58.3707 27.5455   7
 -12  -7   3 747.280 76.8152   4
  12   7   3 630.607 74.1940   4
  12  -7   3 633.711 76.1821   2
  12   7   3 784.646 73.6369   2
  12   7   3 572.544 98.7350   8
 -12   7   3 573.997 64.1631   7
 -12   7   3 685.139 73.9594   5
  12  -7   5 76.4381 34.2572   2
  12   7   5 111.830 39.3821   4
 -12  -7   5 152.333 38.6847   4
 -12  -7   5 46.3741 46.0624   6
 -12   7   5 140.373 38.3382   5
 -12   7   5 80.0888 30.9716   7
  12  -7   7 242.623 55.1046   2
  12   7   7 208.377 52.0287   4
 -12  -7   7 137.867 58.9957   6
  12   7   9 83.5861 40.3486   4
  12  -7   9 121.684 44.9770   2
 -12   7   9 92.2943 34.2388   8
 -12   7   9 103.936 37.3384   5
 -12   7  11 22.3982 29.6763   8
 -12   7  11 34.6852 29.9150   5
 -12  -7  11-4.18966 43.0260   6
  12  -7  13 295.902 49.0739   4
 -12   7  13 339.955 60.3021   8
 -12   7  13 265.083 50.5121   5
 -12  -7  13 222.897 63.1567   6
 -12   7  15 13.5892 25.3781   5
  12   8 -14 246.983 51.4369   1
 -12  -8 -14 151.585 50.5844   6
  12   8 -12 123.453 35.3407   1
  12   8 -12 70.2901 39.5435   8
 -12  -8 -12 99.5912 44.6498   6
 -12   8 -12 82.3581 29.8771   5
  12   8 -10 481.035 74.6259   8
 -12   8 -10 512.239 59.9627   5
 -12  -8 -10 534.418 87.7112   6
 -12  -8 -10 622.914 77.1779   7
  12  -8  -8 45.1352 34.7129   1
  12   8  -8 21.7709 32.9959   8
 -12   8  -8 31.9347 25.5672   7
 -12   8  -8 44.2693 27.9014   5
  12  -8  -6 84.2800 40.6911   1
  12   8  -6 68.8445 40.0310   8
 -12   8  -6 43.5430 28.1458   5
 -12  -8  -6 30.6573 40.4481   6
  12  -8  -4 644.850 89.9888   1
  12   8  -4 415.295 74.4487   8
 -12   8  -4 456.725 60.0129   5
  12   8  -2 94.5312 19.0709   2
  12  -8  -2 146.842 55.5373   1
  12   8  -2 41.5505 39.2140   8
 -12   8  -2 95.2118 33.5282   5
 -12   8  -2 73.9347 28.6136   7
  12   8   0 299.365 51.9583   4
  12  -8   0 283.275 49.7524   2
  12   8   0 272.609 75.1330   8
 -12   8   0 174.633 41.2969   5
 -12   8   0 258.028 42.8189   7
  12   8   2 148.386 43.2044   4
  12  -8   2 172.248 43.1383   2
  12   8   2 62.6938 53.6118   8
 -12   8   2 110.804 36.0985   5
 -12   8   2 133.816 34.8688   7
  12  -8   4 391.819 61.7555   2
  12   8   4 457.049 66.1003   4
 -12   8   4 344.347 55.4599   5
 -12   8   4 398.533 53.4003   7
  12  -8   6 72.6178 35.4700   2
  12   8   6 57.2008 36.3128   4
 -12   8   6 40.4017 32.4045   5
 -12   8   6 66.9025 30.0448   7
  12   8   8 77.2737 38.7311   4
 -12   8   8 41.2772 25.7214   8
 -12   8   8 46.3927 26.8516   7
 -12   8  10 446.858 55.7267   8
 -12   8  10 537.310 68.9110   5
 -12  -8  10 332.372 81.3917   6
 -12   8  10 499.700 61.4248   7
 -12   8  12 101.715 36.6083   8
 -12  -8  12 62.5843 47.6033   6
 -12   8  12 96.0504 35.9799   5
  12   9 -13 786.870 78.2035   1
  12   9 -11 1103.60 114.405   8
 -12  -9 -11 1017.56 119.168   6
  12  -9  -9 1782.54 114.589   1
  12   9  -9 1514.88 134.687   8
 -12  -9  -9 1421.12 148.406   6
 -12  -9  -9 1280.81 110.954   7
  12  -9  -7 417.034 65.0114   1
  12   9  -7 372.235 73.2481   8
 -12   9  -7 319.937 49.8773   5
  12   9  -5 1761.92 152.237   8
 -12   9  -5 1678.57 104.188   7
 -12   9  -5 1556.82 106.698   5
  12   9  -3 4216.90 171.258   4
  12  -9  -3 4354.11 222.122   1
  12   9  -3 3724.93 232.951   8
 -12   9  -3 3536.84 153.208   7
 -12   9  -3 3628.68 168.155   5
  12   9  -1 803.448 48.6675   2
  12   9  -1 688.228 109.867   8
 -12   9  -1 692.962 73.3001   5
 -12   9  -1 722.370 67.0709   7
  12  -9   1 601.221 73.1198   2
  12   9   1 635.372 111.549   8
 -12   9   1 585.154 68.8172   5
 -12   9   1 592.195 61.4970   7
  12   9   3 3820.91 186.024   4
  12  -9   3 3075.86 170.228   2
  12   9   3 3707.94 260.522   8
 -12   9   3 3559.73 171.925   5
 -12   9   3 3430.05 147.165   7
  12  -9   5 1473.10 117.299   2
  12   9   5 1693.43 128.017   4
 -12   9   5 1613.60 116.229   5
 -12   9   5 1775.26 104.693   7
  12   9   7 447.260 74.6555   4
 -12   9   7 392.415 40.5738   8
 -12   9   7 388.046 51.5914   7
 -12   9   9 1299.86 83.7442   8
 -12   9   9 1359.13 107.946   5
 -12   9   9 1440.08 93.0770   7
 -12   9  11 1294.26 89.1721   7
  12  10 -12 952.693 85.8720   1
  12  10 -10 1273.90 127.808   8
 -12 -10 -10 981.919 99.2338   7
  12 -10  -8 1025.27 92.8917   1
  12  10  -8 931.836 111.941   8
 -12 -10  -8 688.241 85.1869   7
  12 -10  -6 649.363 81.7203   1
  12  10  -6 528.208 89.7724   8
 -12  10  -6 477.826 57.5260   7
 -12  10  -4 1709.73 105.866   7
  12  10  -4 1870.67 166.040   8
 -12  10  -4 1752.33 115.057   5
  12  10  -2 1647.85 105.444   4
  12  10  -2 1570.63 51.4853   2
  12  10  -2 1373.94 152.660   8
 -12  10  -2 1306.12 89.8953   7
 -12  10  -2 1298.45 100.505   5
  12  10   0 438.221 60.0435   4
  12  10   0 418.185 38.8439   2
  12 -10   0 327.912 55.3953   2
  12  10   0 402.257 95.7751   8
 -12  10   0 316.903 45.0968   7
 -12  10   0 357.233 56.8476   5
  12 -10   2 1258.39 108.432   2
  12  10   2 1444.96 172.058   8
 -12  10   2 1209.14 99.0624   5
 -12  10   2 1443.61 91.3569   7
 -12  10   4 1842.94 124.772   5
 -12  10   4 1867.15 103.611   7
  12  10   6 710.894 87.7837   4
 -12  10   6 650.326 76.4417   5
 -12  10   6 697.335 62.7505   7
 -12  10   8 865.879 61.1447   8
 -12  10   8 974.474 72.3999   7
 -12  10  10 1240.21 81.8638   7
  12  11  -7 747.544 106.338   8
  12 -11  -7 779.395 87.6915   1
  12  11  -5 991.088 123.624   8
 -12  11  -5 874.540 76.0172   7
  12 -11  -5 1120.23 109.153   1
  12  11  -3 2460.96 205.925   8
 -12  11  -3 2142.70 116.315   7
  12  11  -1 719.478 73.4149   4
 -12  11  -1 579.321 60.2481   7
  12  11  -1 677.771 121.274   8
  12  11  -1 695.523 36.0846   2
  12  11   1 761.330 80.5993   4
  12  11   1 590.338 119.759   8
 -12  11   1 668.054 61.9331   7
  12  11   3 2737.61 155.753   4
  12  11   3 2315.95 223.080   8
 -12  11   3 2348.91 114.968   7
 -12  11   5 898.478 68.2181   7
 -12  11   7 753.577 62.6976   7
 -12  11   9 1182.84 75.0798   7
  12  12  -6 147.387 65.0040   8
  12 -12  -6 110.784 48.6607   1
 -12  12  -4 401.821 53.4240   7
  12  12  -4 436.704 93.4520   8
  12  12  -2 371.656 51.9832   4
  12  12  -2 233.622 80.8471   8
 -12  12  -2 237.408 41.9219   7
  12  12   0 149.878 41.9272   4
  12  12   0 146.217 75.0172   8
 -12  12   0 122.048 32.5758   7
  12  12   0 165.210 22.5443   2
  12  12   2 314.182 54.3421   4
 -12  12   2 240.862 39.5782   7
  12  12   2 215.654 89.0275   8
 -12  12   4 456.874 50.7567   7
 -12  12   6 104.518 28.2752   7
  12  13  -3 272.390 45.8054   4
  12  13  -3 245.193 86.0619   8
 -12  13  -3 210.905 39.8913   7
  12  13  -1 34.1117 27.6607   4
  12  13  -1-13.0188 61.3458   8
 -12  13  -1 20.5628 23.9844   7
  12  13   1 57.3082 31.6153   4
 -12  13   1 35.0231 24.9010   7
  12  13   1 27.4540 60.0513   8
  12  13   1 34.3777 17.9556   2
  12  13   3 130.623 74.1106   8
 -12  13   3 208.723 37.0989   7
 -12  13   5 22.8398 20.1000   7
  12  14  -2 87.1701 31.5985   4
 -12  14  -2 76.1588 30.2598   7
  12  14   0 485.797 62.8502   4
 -12  14   0 369.613 49.0722   7
 -12  14   2 121.801 31.6030   7
  12  15  -1 150.842 39.3656   4
 -12  15  -1 115.307 33.4011   7
 -12  15   1 149.241 34.3823   7
  12  16  -2 864.467 72.7489   4
 -13   0 -17 287.785 43.9039   5
 -13   0 -15 67.0936 29.3421   5
 -13   0 -13 208.540 40.1880   5
 -13   0 -11 193.713 42.7577   5
 -13   0  -9 9.05738 24.4372   7
 -13   0  -7 337.276 59.6547   7
 -13   0  -7 418.145 58.8114   5
 -13   0  -5 209.360 48.2915   7
  13   0  -3 24.8189 20.1854   2
 -13   0  -3 45.9792 41.8126   3
 -13   0  -3 2.46727 26.4677   7
  13   0  -1 260.013 43.2449   2
 -13   0  -1 329.012 65.8205   3
  13   0   1 294.412 48.2323   2
 -13   0   1 288.662 59.7480   3
 -13   0   1 317.644 56.9159   6
 -13   0   3 17.1746 29.0852   3
  13   0   3 42.6641 27.4607   4
  13   0   5 202.565 46.7471   4
  13   0   7 439.633 69.7261   2
  13   0   7 492.633 69.0460   4
  13   0   9 6.45076 28.6027   2
 -13   0   9 18.5734 29.7356   5
  13   0   9 41.0492 33.6221   4
 -13   0  11 169.159 45.9418   5
 -13   0  13 255.315 53.5230   5
 -13  -1 -16 449.833 53.4939   5
 -13   1 -16 448.113 54.2571   5
 -13  -1 -14 102.947 33.3394   5
 -13   1 -14 118.817 33.1467   5
 -13  -1 -12 92.8428 33.5893   5
 -13   1 -12 128.868 35.0545   5
 -13   1 -10 732.750 74.2418   5
 -13  -1 -10 685.823 73.9127   5
 -13   1  -8 454.210 62.4047   7
 -13  -1  -8 497.523 67.5600   7
 -13   1  -6 561.023 68.6447   5
 -13   1  -6 593.657 73.3132   7
 -13  -1  -6 584.355 75.5842   7
 -13  -1  -6 591.910 72.2550   6
 -13  -1  -4 879.255 107.009   3
 -13   1  -4 670.383 74.2936   5
 -13   1  -4 656.324 76.8165   7
 -13  -1  -4 651.940 79.5775   7
 -13  -1  -4 691.390 80.6591   6
 -13   1  -2 674.137 89.0498   3
 -13  -1  -2 775.831 94.4057   3
  13  -1  -2 723.723 66.9780   2
  13   1  -2 690.702 61.7279   2
 -13   1  -2 574.184 70.4148   5
 -13  -1  -2 630.346 77.3101   6
  13  -1   0 1175.29 90.4378   2
  13   1   0 1137.69 85.5497   2
 -13  -1   0 1236.11 110.771   3
 -13   1   0 1269.50 115.633   3
 -13   1   0 903.367 90.1954   5
 -13  -1   0 951.374 96.5752   6
  13   1   2 635.466 70.3526   2
 -13  -1   2 766.758 81.9637   3
 -13   1   2 566.356 72.4312   5
 -13   1   2 805.330 88.5522   3
  13   1   2 568.577 70.0698   4
 -13  -1   2 644.967 79.8241   6
 -13  -1   4 838.190 82.8825   3
  13  -1   4 636.858 73.6253   4
  13   1   4 623.027 75.2396   4
 -13   1   4 546.218 72.2405   5
 -13  -1   4 631.686 80.3099   6
  13  -1   6 595.202 77.8692   2
  13  -1   6 597.028 76.6761   4
  13   1   6 524.443 71.5321   4
 -13   1   6 570.675 74.7187   5
 -13  -1   6 598.491 79.4942   6
  13  -1   8 369.075 65.3614   2
  13  -1   8 423.779 65.2489   4
  13   1   8 364.839 64.3849   4
  13  -1  10 788.725 87.3682   4
  13  -1  10 799.652 97.6253   2
  13   1  10 663.254 91.5434   2
  13   1  10 874.176 41.9689   8
 -13   1  10 621.029 78.6466   5
 -13   1  12 117.446 40.4993   5
 -13  -1  12 87.8299 39.4760   5
 -13  -1  14 82.0221 36.8883   5
 -13   1  14 101.929 37.9950   5
 -13  -2 -15 169.737 39.5703   5
 -13   2 -15 153.488 36.2210   5
 -13   2 -13 828.343 73.9112   5
 -13  -2 -13 751.511 76.1967   5
 -13  -2 -11 445.701 61.2329   5
 -13   2 -11 507.628 59.3370   5
 -13   2  -9 766.299 79.1546   7
 -13  -2  -9 692.550 78.6838   7
 -13   2  -7 653.821 71.3437   5
 -13   2  -7 683.560 73.1383   7
 -13  -2  -7 647.156 76.2715   7
 -13  -2  -7 653.544 76.1642   6
 -13  -2  -5 769.450 85.1696   6
 -13   2  -5 723.081 77.5247   5
 -13   2  -5 669.154 77.0760   7
 -13  -2  -5 684.041 82.2741   7
 -13  -2  -3 2535.68 168.916   3
  13  -2  -3 2497.18 123.363   2
  13   2  -3 2521.59 109.749   2
 -13  -2  -3 1960.53 138.808   6
 -13   2  -3 1999.16 129.204   5
 -13   2  -3 1782.78 125.378   7
  13   2  -1 586.756 57.5183   2
 -13  -2  -1 594.307 79.8045   3
 -13   2  -1 628.538 85.4767   3
 -13  -2  -1 362.610 63.4906   6
 -13   2  -1 428.715 61.8975   5
 -13   2  -1 368.547 60.6775   7
  13   2   1 551.250 62.0993   2
 -13  -2   1 614.818 76.0116   3
 -13   2   1 703.532 85.6510   3
  13   2   1 522.563 66.5031   4
 -13  -2   1 424.868 70.5320   6
 -13   2   1 522.547 68.6701   5
  13   2   3 1978.81 132.393   4
  13  -2   3 1969.25 129.883   2
  13   2   3 2456.72 139.905   2
 -13  -2   3 2457.69 138.762   3
  13   2   3 2351.97 61.5196   8
 -13  -2   3 1685.22 136.976   6
 -13   2   3 1772.69 129.235   5
 -13  -2   5 820.081 78.9688   3
  13  -2   5 620.279 74.9545   4
  13   2   5 568.951 74.5056   4
  13   2   5 634.187 77.5221   2
  13   2   5 856.136 41.3959   8
 -13  -2   5 548.791 79.7394   6
 -13   2   5 623.774 76.9142   5
  13  -2   7 858.827 87.3257   4
  13   2   7 671.640 82.3004   4
 -13  -2   7 962.662 79.6310   3
  13  -2   7 617.515 81.9082   2
  13   2   7 968.335 67.0481   8
 -13  -2   7 767.130 91.4518   6
 -13   2   7 750.606 84.2600   5
  13  -2   9 825.461 98.0189   2
  13  -2   9 1014.92 96.4956   4
  13   2   9 754.931 88.8173   4
 -13   2   9 837.807 88.7719   5
 -13  -2   9 667.064 86.6937   6
  13   2  11 655.921 40.6187   8
 -13  -2  11 421.800 69.5169   6
 -13   2  11 512.631 71.0354   5
 -13   2  13 852.791 84.6034   5
 -13   2  15 150.563 40.9550   5
 -13  -3 -16 288.342 46.8277   5
 -13   3 -14 580.694 62.4822   5
 -13  -3 -14 563.823 64.9634   5
 -13   3 -12 691.664 69.5401   5
 -13   3 -10 1059.97 86.1207   5
 -13  -3 -10 1123.63 98.6063   6
 -13   3  -8 661.729 72.7311   7
 -13  -3  -8 660.082 77.9884   7
 -13  -3  -6 493.137 72.1163   6
 -13   3  -6 491.253 63.3661   7
 -13  -3  -6 511.094 72.1495   7
 -13   3  -6 482.085 62.0967   5
 -13  -3  -4 1569.85 127.454   6
 -13   3  -4 1478.99 107.452   5
 -13   3  -4 1543.16 111.878   7
  13   3  -2 1724.71 91.4146   2
  13   3  -2 1695.41 78.5226   8
 -13  -3  -2 1196.32 114.964   6
 -13   3  -2 1315.42 103.720   5
 -13   3  -2 1258.21 104.078   7
 -13   3   0 519.798 76.8586   3
  13   3   0 404.373 59.8107   4
  13   3   0 483.023 54.5040   2
 -13  -3   0 380.243 63.5315   3
  13   3   0 454.017 40.5557   8
 -13  -3   0 235.602 59.9466   6
 -13   3   0 332.701 55.6138   5
 -13   3   0 352.317 58.3716   7
  13   3   2 1464.31 112.092   4
  13  -3   2 1420.17 107.259   2
  13   3   2 1468.31 103.309   2
 -13  -3   2 1503.49 109.750   3
  13   3   2 1730.73 79.7966   8
 -13  -3   2 1133.99 118.125   6
 -13   3   2 1204.49 103.838   5
  13   3   4 1537.79 117.804   4
  13  -3   4 1414.44 113.940   2
  13   3   4 1784.69 122.311   2
 -13  -3   4 1739.88 110.702   3
 -13  -3   4 1449.91 132.076   6
 -13   3   4 1495.88 115.862   5
  13  -3   6 650.794 75.8152   4
  13   3   6 525.380 73.1869   4
  13  -3   6 524.210 76.6238   2
 -13  -3   6 677.776 65.8025   3
  13   3   6 565.641 76.2499   2
  13   3   6 602.360 69.9105   8
 -13  -3   6 495.599 79.5259   6
 -13   3   6 573.582 73.7906   5
  13  -3   8 691.414 87.7069   2
 -13  -3   8 867.426 70.0718   3
  13  -3   8 867.798 87.4433   4
  13   3   8 640.729 83.5330   4
 -13  -3  10 985.909 105.118   6
 -13   3  10 1075.25 96.7204   5
 -13   3  12 850.166 84.6379   5
 -13  -3  12 678.888 87.5957   6
 -13   3  14 651.067 76.0406   5
 -13  -4 -15 351.984 53.9319   5
 -13   4 -13 529.814 59.7535   5
 -13   4 -11 1322.68 96.5240   5
 -13  -4 -11 1338.52 108.361   6
 -13  -4  -9 1934.55 136.513   6
 -13  -4  -9 1804.19 130.267   7
  13  -4  -7 437.206 87.2793   1
 -13  -4  -7 298.898 59.8132   6
 -13   4  -7 269.475 46.8901   5
 -13   4  -7 228.185 46.1085   7
 -13  -4  -7 293.921 56.7852   7
 -13  -4  -5 1403.22 125.860   6
 -13   4  -5 1401.10 100.870   5
 -13   4  -5 1566.69 109.043   7
 -13  -4  -3 4505.50 233.965   6
 -13   4  -3 4848.48 200.150   5
 -13   4  -3 4943.68 207.896   7
  13   4  -1 792.306 63.8248   2
  13   4  -1 867.432 67.4335   8
 -13  -4  -1 645.833 88.7123   6
 -13   4  -1 624.260 70.3671   5
 -13   4  -1 694.398 76.5365   7
  13   4   1 851.842 84.1944   4
  13  -4   1 775.047 80.3992   2
  13   4   1 957.499 76.7348   2
  13   4   1 997.114 76.9881   8
 -13  -4   1 741.695 97.4372   6
 -13   4   1 698.574 76.5241   5
  13   4   3 5199.98 222.759   4
  13  -4   3 5006.28 217.110   2
  13   4   3 5773.01 214.701   2
  13   4   3 5469.18 202.369   8
 -13   4   3 4759.42 204.925   5
  13   4   5 1580.97 124.156   4
  13  -4   5 1273.64 112.123   2
  13   4   5 1588.32 120.794   2
 -13  -4   5 1559.88 97.2323   3
  13   4   5 1302.66 113.688   8
 -13  -4   5 1188.00 123.914   6
 -13   4   5 1623.05 115.444   5
  13  -4   7 280.596 59.0960   2
 -13  -4   7 338.240 44.1344   3
  13   4   7 212.786 51.7528   4
 -13  -4   7 238.933 61.1148   6
 -13   4   7 358.375 57.0845   5
 -13  -4   9 2352.83 103.688   3
 -13   4   9 2055.07 131.886   5
 -13  -4  11 1120.34 116.490   6
 -13   4  11 1426.09 109.762   5
 -13   4  13 710.315 80.1997   5
 -13  -5 -12 261.148 54.3905   6
 -13   5 -12 269.195 45.7261   5
 -13  -5 -10 390.775 67.4286   6
 -13   5 -10 453.805 57.7470   5
  13  -5  -8 283.590 69.3858   1
 -13  -5  -8 106.593 41.9664   7
  13  -5  -6 239.212 70.6356   1
  13   5  -6 155.667 37.9276   8
 -13   5  -6 126.667 35.4010   5
 -13  -5  -6 115.033 44.4851   6
 -13   5  -6 107.146 34.6541   7
 -13  -5  -6 88.1007 40.6677   7
  13   5  -4 370.543 52.4582   8
 -13  -5  -4 344.762 69.1000   6
 -13   5  -4 361.980 53.0994   5
 -13   5  -4 338.084 53.7519   7
  13  -5  -2 247.368 73.6631   1
  13   5  -2 155.927 40.0607   8
 -13  -5  -2 129.128 50.3789   6
 -13   5  -2 120.421 36.8565   7
 -13   5  -2 102.712 34.0875   5
  13   5   0 40.9552 28.1112   4
  13   5   0 43.8801 22.5279   2
  13   5   0 42.7667 30.8624   8
 -13   5   0 30.1187 23.6507   5
 -13  -5   0 44.5650 40.8276   6
  13   5   2 128.272 39.8918   4
  13  -5   2 143.586 41.6113   2
  13   5   2 204.474 41.4786   2
  13   5   2 141.243 42.5202   8
 -13   5   2 143.382 38.3638   5
 -13  -5   2 68.3621 42.8582   6
 -13   5   2 109.146 38.9233   7
  13   5   4 432.488 66.2613   4
  13  -5   4 310.787 57.0295   2
  13   5   4 350.992 57.7160   2
  13   5   4 284.139 64.1189   8
 -13   5   4 338.753 55.7467   5
 -13  -5   4 249.242 66.3456   6
  13   5   6 148.320 44.5057   4
  13  -5   6 95.1169 40.3623   2
  13   5   6 161.867 46.9769   2
  13   5   6 118.988 53.7545   8
 -13  -5   6 157.764 57.1991   6
 -13   5   6 157.340 41.9350   5
 -13  -5   8 140.184 27.8971   3
  13  -5  10 520.473 67.3484   4
 -13  -5  10 343.253 72.5995   6
 -13   5  10 449.977 66.5214   5
 -13   5  12 239.286 51.4476   5
  13   6 -13 472.596 55.0879   1
 -13  -6 -11 64.2206 38.2571   6
  13  -6  -9 433.191 69.4170   1
 -13  -6  -9 315.062 65.6468   6
  13   6  -7 451.994 62.2376   8
 -13   6  -7 374.142 54.0707   7
 -13  -6  -7 283.988 63.9375   6
 -13   6  -7 373.908 54.1317   5
 -13  -6  -7 322.070 62.3951   7
  13   6  -5 203.739 46.4446   8
 -13  -6  -5 143.960 52.0793   6
 -13   6  -5 164.587 39.9307   7
 -13   6  -5 169.170 41.0222   5
  13   6  -3 1044.47 93.7015   8
 -13  -6  -3 860.901 110.044   6
 -13   6  -3 1117.96 93.6538   5
  13   6  -1 233.534 47.2302   4
  13  -6  -1 137.022 37.3889   2
  13   6  -1 188.981 48.6585   8
 -13   6  -1 159.530 39.7072   5
 -13  -6  -1 113.204 53.4330   6
  13   6   1 192.547 46.5778   4
  13  -6   1 107.295 37.7710   2
  13   6   1 152.265 34.5335   2
  13   6   1 135.398 46.5631   8
 -13   6   1 142.804 40.5943   5
 -13  -6   1 95.0068 51.5141   6
 -13   6   1 123.106 36.6090   7
  13   6   3 1120.34 101.320   4
  13  -6   3 969.208 94.3420   2
  13   6   3 1262.54 95.8649   2
  13   6   3 1019.59 118.600   8
 -13   6   3 1069.17 94.6597   5
 -13  -6   3 978.994 122.027   6
 -13   6   3 1029.38 91.4015   7
  13   6   5 268.728 55.6528   4
  13  -6   5 139.112 44.0545   2
  13   6   5 253.205 52.8555   2
  13   6   5 239.999 69.8583   8
 -13  -6   5 182.310 62.1382   6
 -13   6   5 209.276 48.1628   7
 -13   6   5 241.386 49.8688   5
 -13  -6   7 217.460 64.5922   6
 -13  -6   9 224.047 64.3628   6
 -13   6   9 418.753 63.8619   5
  13  -7  -8 227.167 56.4960   1
  13   7  -8 196.154 48.2653   8
  13  -7  -6 447.912 79.4007   1
  13   7  -6 274.437 57.4680   8
 -13   7  -6 271.884 47.2362   7
 -13  -7  -6 284.846 70.1090   6
 -13   7  -6 243.521 46.7101   5
  13  -7  -4 97.9093 57.4408   1
  13   7  -4 33.0940 31.6042   8
 -13  -7  -4 37.8232 44.7246   6
 -13   7  -4 19.2712 24.3175   5
  13   7  -2 87.4155 44.3427   8
 -13  -7  -2 74.6655 49.9672   6
 -13   7  -2 59.9378 28.9947   5
 -13   7  -2 113.354 34.6087   7
  13   7   0 967.434 89.6481   4
  13  -7   0 817.751 84.6656   2
  13   7   0 831.571 103.099   8
 -13  -7   0 658.875 106.552   6
 -13   7   0 716.864 73.2541   7
 -13   7   0 823.712 83.3482   5
  13   7   2 163.135 44.3667   4
  13  -7   2 92.5871 38.2410   2
  13   7   2 107.015 32.3855   2
  13   7   2 79.0235 52.0637   8
 -13  -7   2 27.8211 43.6013   6
 -13   7   2 91.5015 36.1064   5
 -13   7   2 81.2242 34.0934   7
  13   7   4 96.2397 39.6287   4
  13  -7   4 82.3278 37.0818   2
  13   7   4 39.8185 30.5897   2
  13   7   4 36.6493 49.9039   8
 -13  -7   4 13.9975 46.8177   6
 -13   7   4 83.7003 35.4857   5
 -13   7   4 58.0432 31.1774   7
 -13  -7   6 241.408 72.1663   6
 -13   7   6 248.796 50.8211   5
 -13   7   6 301.749 52.2954   7
 -13   7   8 178.323 45.1205   7
  13  -8  -9 161.150 45.3737   1
  13   8  -9 122.703 44.6132   8
  13  -8  -7 535.550 80.5380   1
  13   8  -7 330.886 66.5901   8
  13  -8  -5 272.120 66.9278   1
  13   8  -5 210.478 55.4646   8
  13   8  -3 492.287 81.3100   8
 -13  -8  -3 451.042 92.9920   6
 -13   8  -3 533.033 61.9341   7
  13  -8  -1 133.229 40.0866   2
  13   8  -1 128.969 55.2974   8
 -13   8  -1 117.846 38.7774   5
 -13  -8  -1 109.088 60.2901   6
 -13   8  -1 117.742 34.6261   7
  13   8   1 201.300 47.7116   4
  13  -8   1 158.150 45.0907   2
  13   8   1 197.286 35.2531   2
  13   8   1 132.420 58.9201   8
 -13   8   1 156.311 42.8365   5
 -13  -8   1 56.3551 53.7824   6
 -13   8   1 163.123 38.9460   7
  13   8   3 656.151 67.7998   2
  13  -8   3 522.874 73.8846   2
  13   8   3 438.584 95.4759   8
 -13   8   3 502.699 69.1454   5
 -13   8   3 484.213 61.7538   7
  13   8   5 188.339 72.8434   8
 -13   8   5 139.060 39.9639   7
 -13   8   7 412.609 59.3169   7
 -13   8   9 154.082 40.8214   7
 -13   8  11 134.012 40.5858   7
  13   9 -12 373.278 56.4916   1
  13   9 -10 1586.93 136.938   8
  13   9  -8 373.610 73.4679   8
  13  -9  -8 510.449 71.8706   1
  13   9  -6 136.391 53.8936   8
  13  -9  -6 183.028 56.2088   1
 -13   9  -4 1987.13 116.260   7
  13   9  -4 2177.76 169.174   8
  13   9  -2 1841.43 117.285   4
  13   9  -2 1759.83 64.8488   2
  13   9  -2 1590.04 149.699   8
  13   9   0 21.0802 30.9713   4
  13   9   0 4.67884 45.1632   8
 -13   9   0 13.2591 23.8847   7
  13   9   2 1696.16 98.6424   2
 -13   9   2 1414.78 97.7948   7
  13   9   4 1916.25 192.254   8
 -13   9   4 2076.62 118.849   7
 -13   9   6 173.880 41.2181   7
 -13   9   8 434.369 57.3778   7
 -13   9  10 1557.90 102.183   7
  13  10  -7 1558.54 142.707   8
  13 -10  -7 1700.08 131.201   1
  13  10  -5 1237.39 131.819   8
  13  10  -3 1421.74 145.630   8
 -13  10  -3 1460.19 99.5832   7
  13  10  -1 1392.91 105.405   4
 -13  10  -1 1246.44 91.6415   7
  13  10  -1 1327.35 153.137   8
  13  10  -1 1544.14 62.1868   2
  13  10   1 1655.58 119.998   4
  13  10   1 1248.37 159.151   8
 -13  10   1 1408.43 95.3878   7
  13  10   3 1764.87 104.662   2
  13  10   3 1371.98 171.463   8
 -13  10   3 1512.87 98.7221   7
 -13  10   5 1060.35 82.2438   7
 -13  10   7 1607.91 98.5636   7
 -13  10   9 942.643 74.5141   7
  13  11  -6 106.920 55.7392   8
  13  11  -4 1216.96 137.603   8
 -13  11  -2 784.491 72.7430   7
  13  11  -2 758.158 117.682   8
  13  11   0 21.2366 31.7845   4
  13  11   0 28.4289 15.9453   2
  13  11   0 28.8618 56.2424   8
 -13  11   0 12.5910 21.8329   7
  13  11   2 1069.65 72.4877   2
 -13  11   2 949.025 76.2827   7
  13  11   4 1366.71 97.3414   2
 -13  11   4 1110.63 82.7899   7
  13  11   4 1089.16 159.905   8
 -13  11   6 158.443 35.8002   7
  13  12  -3 651.669 111.782   8
  13  12  -1 2.18278 26.3795   4
 -13  12  -1-5.37955 24.2113   7
  13  12  -1 17.5786 52.0402   8
  13  12   1 6.68383 57.0234   8
 -13  12   1 8.61036 22.6495   7
  13  12   3 631.211 59.8504   2
  13  12   3 560.170 129.671   8
 -13  12   3 451.112 54.0139   7
 -13  12   5 58.6592 26.3573   7
 -13  13   0 106.540 32.2433   7
 -13  13   2 31.9874 24.5416   7
 -13  13   4 71.9520 28.3064   7
 -13  14   1 122.783 34.5463   7
 -14   0  -6 3866.34 187.670   5
 -14   0  -4 130.234 41.0470   5
 -14   0  -4 113.039 42.2187   7
  14   0  -2 1683.34 102.502   2
 -14   0  -2 1202.69 106.603   5
  14   0   0 8019.18 260.767   2
 -14   0   0 8671.44 320.774   3
  14   0   2 1433.33 108.886   2
 -14   0   2 1708.92 130.352   3
  14   0   4 219.091 51.3504   2
 -14   0   4 200.368 51.6729   3
  14   0   4 151.354 45.3163   4
 -14   0   6 3927.57 202.331   5
 -14  -1  -7 358.960 60.6789   5
 -14   1  -7 382.066 60.9170   5
 -14   1  -5 457.338 66.5295   5
 -14   1  -5 473.553 68.0291   7
  14  -1  -3 519.877 58.5312   2
  14   1  -3 454.592 51.8263   2
 -14   1  -3 379.386 64.4315   7
 -14   1  -3 395.668 63.6331   5
 -14  -1  -3 360.046 63.7647   7
 -14  -1  -3 354.186 63.5240   6
 -14  -1  -1 530.251 81.9734   3
  14  -1  -1 538.594 63.1949   2
  14   1  -1 596.897 63.7440   2
 -14   1  -1 394.413 63.9479   5
 -14  -1  -1 404.293 68.5590   6
  14  -1   1 565.465 69.1182   2
  14   1   1 593.960 67.7685   2
 -14  -1   1 619.658 81.7536   3
 -14   1   1 417.052 67.3323   5
 -14  -1   1 422.465 70.8408   6
  14  -1   3 399.462 62.7834   2
  14   1   3 472.687 65.3825   2
 -14  -1   3 497.445 71.1289   3
  14   1   3 384.670 62.5749   4
 -14   1   3 510.938 76.0768   3
 -14   1   3 378.966 64.3075   5
 -14  -1   3 363.657 66.5106   6
  14   1   5 513.142 73.0784   2
  14  -1   5 424.233 69.2417   4
 -14  -1   5 617.392 75.2100   3
 -14   1   5 452.667 70.8655   5
 -14  -1   5 434.211 71.8687   6
  14   1   7 360.548 67.4412   2
 -14  -1   7 545.892 69.1958   3
 -14   2  -6 680.056 76.7459   5
 -14  -2  -6 560.875 76.1855   6
 -14   2  -4 14.6967 26.7644   5
 -14  -2  -4 46.0686 33.8630   6
 -14   2  -4 37.4636 31.3189   7
 -14  -2  -4 11.4505 32.1124   7
  14  -2  -2 115.412 35.3101   2
  14   2  -2 128.310 32.6111   2
 -14  -2  -2 109.988 48.4614   3
 -14   2  -2 53.3237 32.5308   5
 -14  -2  -2 82.7177 38.5697   6
 -14   2  -2 77.7166 36.2436   7
  14  -2   0 1164.91 95.6761   2
 -14  -2   0 1287.32 115.956   3
 -14  -2   0 995.984 104.434   6
 -14   2   0 1042.67 99.6289   5
  14  -2   2 140.704 40.6359   2
  14   2   2 132.505 38.7342   2
 -14  -2   2 107.300 42.0345   3
 -14   2   2 110.318 41.1151   5
  14   2   2 82.2677 35.2970   4
 -14  -2   2 87.9193 40.9994   6
  14   2   4 30.9618 32.3109   2
 -14  -2   4 18.9433 30.1451   3
 -14   2   4 41.5143 36.0460   5
  14   2   4 22.1751 32.9709   4
 -14  -2   4 16.1040 31.7933   6
  14   2   6 767.156 89.8656   2
 -14  -2   6 748.213 75.7960   3
 -14   2   6 721.758 86.1009   5
 -14  -2   6 622.524 86.3130   6
  14   2   8 136.288 48.7138   2
 -14  -2   8 243.088 45.9666   3
  14  -3  -9 758.450 113.846   1
 -14  -3  -5 282.765 59.3920   6
 -14   3  -5 242.880 47.5913   5
 -14   3  -3 1083.80 97.3459   5
 -14  -3  -3 1065.19 109.912   6
 -14   3  -3 1122.21 99.1184   7
  14  -3  -1 163.322 41.9432   2
  14   3  -1 118.351 31.5232   2
 -14   3  -1 111.850 39.2302   5
 -14  -3  -1 73.6835 38.0951   6
 -14   3  -1 73.9167 37.0549   7
  14   3   1 106.534 35.2084   2
 -14  -3   1 83.9518 40.8031   3
 -14   3   1 136.304 42.3410   5
  14   3   1 75.8883 36.8904   4
 -14  -3   1 89.1156 45.5455   6
  14   3   3 1112.25 104.019   4
  14   3   3 1295.76 103.424   2
 -14  -3   3 1211.23 101.335   3
  14   3   3 1335.12 51.5058   8
 -14  -3   3 926.974 107.895   6
 -14   3   3 1101.41 101.580   5
  14   3   5 325.252 61.5273   2
  14  -3   5 201.691 51.9253   2
 -14  -3   5 301.436 51.9060   3
  14   3   5 386.267 30.8178   8
 -14   3   5 321.486 60.3641   5
 -14  -3   5 237.925 60.4470   6
 -14  -3   7 100.697 33.5971   3
  14   3   7 100.061 43.7882   2
  14   3   7 169.906 31.1008   8
  14  -4  -8 302.324 80.4822   1
  14  -4  -6 28.4477 53.1756   1
 -14  -4  -4 514.246 82.5440   6
 -14   4  -4 529.714 70.5580   7
  14  -4  -2 372.343 55.1523   2
  14   4  -2 294.912 39.7643   2
  14   4  -2 331.001 40.5498   8
 -14  -4  -2 238.810 63.6312   6
 -14   4  -2 256.560 49.6704   5
 -14   4  -2 247.155 51.5227   7
  14   4   0 8.19398 20.8996   2
  14   4   0 26.1344 20.6262   8
 -14   4   0-4.76577 28.0189   5
 -14  -4   0-11.0638 38.1301   6
  14   4   2 266.830 55.5027   4
  14   4   2 243.524 47.3998   2
  14   4   2 319.463 40.2911   8
 -14  -4   2 294.330 70.5773   6
 -14   4   2 246.772 51.0193   5
 -14   4   2 320.870 59.4956   7
  14  -4   4 448.548 71.5320   2
  14   4   4 551.004 71.4165   2
 -14  -4   4 489.531 63.5325   3
  14   4   4 568.537 54.8662   8
  14   4   6-11.5733 29.7397   2
 -14  -4   6-3.57312 25.6446   3
  14   4   6 12.1578 31.1729   8
  14   4   8 167.187 55.4439   2
  14   4   8 84.2874 46.5653   8
  14  -5  -7 1931.63 168.577   1
  14  -5  -5 1024.26 133.453   1
  14   5  -5 842.562 74.6675   8
  14   5  -3 864.366 58.0742   2
  14   5  -3 875.411 72.9170   8
  14   5  -1 1247.52 79.5487   2
  14   5  -1 1269.21 88.3163   8
  14   5   1 1127.02 101.858   4
  14   5   1 1289.16 88.4293   2
  14   5   1 1196.84 87.5775   8
 -14   5   1 1032.33 97.1796   7
  14  -5   3 664.682 82.9441   2
  14   5   3 818.654 80.5629   2
  14   5   3 725.688 74.5457   8
 -14   5   3 667.837 80.1786   7
  14   5   5 749.337 86.3258   2
  14   5   5 790.606 90.2043   8
  14   5   7 1153.56 112.274   2
  14   5   7 1110.13 118.020   8
  14  -6  -8 739.915 103.398   1
  14  -6  -6 1249.61 140.867   1
  14   6  -6 990.648 87.8082   8
  14   6  -4 1180.48 94.7815   8
  14   6  -2 1102.86 65.8691   2
  14   6  -2 978.125 87.6598   8
 -14   6  -2 856.656 84.0057   7
  14   6   0 1306.17 108.476   4
  14   6   0 1412.05 85.9262   2
  14   6   0 1336.51 106.737   8
 -14   6   0 1187.07 101.236   7
  14   6   2 985.836 81.5758   2
  14   6   2 830.497 88.1368   8
 -14   6   2 803.677 83.0693   7
  14   6   4 1397.59 107.511   2
  14   6   4 1053.04 114.919   8
 -14   6   4 1105.74 98.3950   7
  14   6   6 914.276 95.4573   2
  14   6   6 731.694 105.647   8
 -14   6   6 789.375 86.7241   7
  14  -7  -7 1332.83 131.014   1
  14   7  -7 1109.71 100.219   8
  14   7  -5 562.719 72.5469   8
  14   7  -3 95.0546 39.5809   8
  14   7  -1 920.787 97.8683   8
 -14   7  -1 912.497 85.0635   7
  14   7   1 815.617 97.6153   8
 -14   7   1 987.248 91.3728   7
  14   7   3 104.098 35.6959   2
  14   7   3 113.908 52.8308   8
 -14   7   3 113.195 39.4214   7
  14   7   5 615.257 77.3407   2
  14   7   5 470.094 96.0565   8
 -14   7   5 537.040 70.0014   7
  14   7   7 1044.32 106.933   2
  14   7   7 871.408 125.555   8
 -14   7   7 1008.92 92.6224   7
 -14   7   9 418.538 64.5281   7
  14   8  -8 570.233 80.0580   8
  14   8  -6 1467.84 123.686   8
  14   8  -4 36.7008 37.7877   8
  14   8  -2 351.944 67.8475   8
 -14   8  -2 406.383 58.8274   7
  14   8   0 2275.24 167.920   8
 -14   8   0 2342.60 135.590   7
  14   8   2 483.616 56.0430   2
  14   8   2 329.733 78.7961   8
 -14   8   2 393.979 57.3699   7
  14   8   4 15.6091 29.9548   2
  14   8   4 20.0812 53.3057   8
 -14   8   4 2.27706 28.4735   7
  14   8   6 1727.07 129.648   2
  14   8   6 1361.41 161.668   8
 -14   8   6 1522.67 110.523   7
 -14   8   8 678.792 76.6220   7
 -14   8  10 125.566 41.2673   7
  14   9  -7 284.067 64.5698   8
  14   9  -5 193.953 57.8387   8
  14   9  -3-7.30460 42.2302   8
  14   9  -1 198.039 67.0607   8
 -14   9  -1 173.932 42.0356   7
  14   9   1 311.789 41.2402   2
  14   9   1 205.384 72.2067   8
 -14   9   1 226.758 46.0564   7
  14   9   3 22.5111 26.1601   2
  14   9   3-5.37963 57.0047   8
 -14   9   3 2.07227 26.8424   7
  14   9   5 153.692 45.7694   2
  14   9   5 187.169 79.3833   8
 -14   9   5 131.679 38.3099   7
 -14   9   7 432.103 61.3090   7
  14  10  -6 589.462 92.5575   8
  14  10  -2 596.885 97.8302   8
 -14  10   0 696.129 71.4422   7
  14  10   0 868.184 124.507   8
  14  10   2 676.992 60.5008   2
  14  10   2 465.975 104.349   8
 -14  10   2 547.647 62.4532   7
  14  10   4 600.343 67.7321   2
  14  10   4 499.860 114.346   8
 -14  10   4 493.121 60.8419   7
  14  10   6 680.355 82.0602   2
  14  10   6 529.916 118.434   8
 -14  10   6 650.364 68.2010   7
  14  11  -3 22.9255 46.2019   8
  14  11  -1-15.6043 50.1092   8
  14  11   1-5.76494 52.7710   8
  14  11   3-6.63202 66.7855   8
 -14  11   3 37.8236 28.1376   7
  14  11   5 25.1784 31.5260   2
  14  11   5 13.9998 60.2461   8
 -14  11   5 9.35140 23.4585   7
  14  12   2 239.918 100.722   8
 -14  12   2 192.191 40.0718   7
  15   0  -1 1296.51 96.4371   2
  15   0   1 1193.68 98.9266   2
  15   0   3 901.655 92.8648   2
  15   0   5 997.208 103.451   2
  15  -1  -2 846.060 78.8446   2
  15   1  -2 968.610 78.1117   2
  15   1   0 4074.32 177.305   2
  15  -1   0 3927.52 181.150   2
  15  -1   2 770.925 83.6029   2
  15   1   2 791.704 81.8822   2
  15   1   4 272.116 55.7214   2
  15  -1   4 225.333 52.2087   2
 -15  -1   4 251.222 56.9487   3
 -15  -1   6 2348.60 143.755   3
  15  -2  -1 325.080 54.5552   2
  15   2  -1 401.605 52.6896   2
  15  -2   1 299.432 55.8383   2
  15   2   1 335.943 53.5745   2
  15  -2   3 2.78719 28.5684   2
  15   2   3 7.49657 25.5900   2
 -15  -2   3 13.8128 33.0928   3
  15   2   5 225.619 55.1398   2
 -15  -2   5 157.903 46.2284   3
  15  -3  -2 109.151 37.1439   2
  15   3  -2 82.3440 27.1325   2
  15   3   0 294.967 46.8927   2
  15  -3   0 315.440 56.7161   2
  15  -3   2 54.5426 34.9065   2
  15   3   2 78.1102 34.3806   2
 -15  -3   2 64.2526 40.7065   3
  15   3   4 81.7594 38.9633   2
 -15  -3   4 56.8605 35.1963   3
  15   3   6 188.805 52.8126   2
  15  -4  -1 461.631 65.9053   2
  15   4  -1 575.266 58.0003   2
  15   4   1 432.677 56.5614   2
  15   4   3 382.869 59.5215   2
  15   4   5 436.677 68.0735   2
  15   5  -2 787.756 61.1670   2
  15   5  -2 860.114 64.8042   8
  15   5   0 822.231 69.3194   2
  15   5   2 716.529 72.6418   2
  15   5   4 751.675 82.2638   2
  15   5   6 596.037 82.5917   2
  15   6  -3 198.779 41.5556   8
  15   6  -1 2020.68 97.4329   2
  15   6  -1 1980.87 114.645   8
  15   6   1 1804.05 106.278   2
  15   6   3 192.345 44.6715   2
  15   6   5 1117.93 103.260   2
  15   7  -4 741.447 79.1542   8
  15   7  -2 1274.00 67.4883   2
  15   7  -2 1146.95 99.5276   8
  15   7   0 2984.12 123.916   2
  15   7   2 1159.76 86.2990   2
  15   7   4 821.359 83.5357   2
  15   7   6 2026.64 141.218   2
  15   8   1 433.867 49.3929   2
  15   8   3 227.316 44.8221   2
  15   8   5 282.194 54.3936   2
  15   9   4 69.8901 32.3289   2
  15   9   6 669.563 81.7087   2
  16   0  -2 382.071 55.4767   2
  16   0   0 1275.74 100.492   2
  16  -1  -1 329.444 55.0045   2
  16   1  -1 312.349 51.2310   2
  16   1   1 239.083 49.6432   2
  16   2  -2 36.0365 25.7829   2
  16   2   0 215.099 44.3955   2
  16   2   2 32.0718 31.2008   2
  16   3  -1 151.288 37.2265   2
  16   3   1 117.366 36.7881   2
  16   3   3 776.344 85.1220   2
  16   4  -2 166.364 33.4490   2
  16   4   0 111.968 34.5222   2
  16   4   2 174.920 43.3233   2
  16   4   4 249.254 55.1157   2
  16   5  -1 17.2760 24.0768   2
  16   5   1 38.5611 29.5882   2
  16   5   3 63.9134 33.1871   2
  16   6   2 177.547 40.8830   2
  17   3   0 87.6334 34.8327   2
   0   0   0    0.00    0.00   0

TITL Na-CmW10 in Imm2
REM Imm2 (#44, found as Im2m in a-cb setting)
CELL 0.71073  11.507509  15.259368  17.641761  90.0000  90.0000  90.0000
ZERR   17.00   0.000476   0.000608   0.000722   0.0000   0.0000   0.0000
LATT -2
SYMM -x,-y, z
SYMM  x,-y, z
SYMM -x, y, z
SFAC O Na Cs W Pu
UNIT 17.00 17.00 17.00 17.00 17.00
TREF
HKLF 4
END
;
_shelx_hkl_checksum                25827
_olex2_submission_special_instructions  'No special instructions were received'
_oxdiff_exptl_absorpt_empirical_details
;
Empirical correction (ABSPACK) includes:
- Absorption correction using spherical harmonics
- Frame scaling
;
