data_u-dimer
_audit_creation_method             'SHELXL-2018/3'
_shelx_SHELXL_version_number       '2018/3'
_chemical_name_common              ?
_chemical_name_systematic          ?
_chemical_formula_moiety           '0.25(H40 O72 S12 U8)'
_chemical_formula_sum              'H10 O18 S3 U2'
_chemical_formula_weight           870.32
_chemical_melting_point            ?
loop_
  _atom_type_symbol
  _atom_type_description
  _atom_type_scat_dispersion_real
  _atom_type_scat_dispersion_imag
  _atom_type_scat_source
 'H' 'H' 0.0000 0.0000 'International Tables Vol C Tables 4.2.6.8 and 6.1.1.4'
 'O' 'O' 0.0492 0.0322 'International Tables Vol C Tables 4.2.6.8 and 6.1.1.4'
 'S' 'S' 0.3331 0.5567 'International Tables Vol C Tables 4.2.6.8 and 6.1.1.4'
 'U' 'U' -4.3638 13.4090 'International Tables Vol C Tables 4.2.6.8 and 6.1.1.4'

_shelx_space_group_comment
;
The symmetry employed for this shelxl refinement is uniquely defined
by the following loop, which should always be used as a source of
symmetry information in preference to the above space-group names.
They are only intended as comments.
;
_space_group_crystal_system        'monoclinic'
_space_group_IT_number             15
_space_group_name_H-M_alt          'C 1 2/c 1'
_space_group_name_Hall             '-C 2yc'
loop_
  _space_group_symop_operation_xyz
 'x, y, z'
 '-x, y, -z+1/2'
 'x+1/2, y+1/2, z'
 '-x+1/2, y+1/2, -z+1/2'
 '-x, -y, -z'
 'x, -y, z-1/2'
 '-x+1/2, -y+1/2, -z'
 'x+1/2, -y+1/2, z-1/2'

# start Validation Reply Form
_vrf_PLAT972_u-dimer
;
PROBLEM: Check Calcd Resid. Dens. 0.90A From U1 -5.20 eA-3
RESPONSE: High residual q-peaks are common near heavy atoms
Please see Manuscript.
;
_vrf_PLAT974_u-dimer
;
PROBLEM: Check Calcd Negative Resid. Density on U1 -4.94 eA-3
RESPONSE: High residual q-peaks are common near heavy atoms
Please see manuscript
;
_vrf_PLAT213_u-dimer
;
PROBLEM: Atom U1 has ADP max/min Ratio ..... 4.9 oblate
RESPONSE: Due to heavy x-ray absorption. Multiple correction 
methods were used. All describe the U ellipsoids the same. 
Please see manuscript for more information on absorption.
;
_vrf_PLAT420_u-dimer
;
PROBLEM: D-H Without Acceptor O3 --H3B . Please Check
RESPONSE: No Acceptor could be located
;
# end Validation Reply Form

_cell_length_a                     13.56198(16)
_cell_length_b                     6.78246(7)
_cell_length_c                     15.59261(19)
_cell_angle_alpha                  90
_cell_angle_beta                   95.6196(11)
_cell_angle_gamma                  90
_cell_volume                       1427.37(3)
_cell_formula_units_Z              4
_cell_measurement_reflns_used      1254
_cell_measurement_temperature      100(2)
_cell_measurement_theta_max        66.600
_cell_measurement_theta_min        5.702
_shelx_estimated_absorpt_T_max     0.082
_shelx_estimated_absorpt_T_min     0.032
_exptl_absorpt_coefficient_mu      68.486
_exptl_absorpt_correction_T_max    0.303
_exptl_absorpt_correction_T_min    0.062
_exptl_absorpt_correction_type     analytical
_exptl_absorpt_process_details     
;
CrysAlisPro 1.171.40.53 (Rigaku Oxford Diffraction, 2019)
Empirical absorption correction using spherical harmonics,
 implemented in SCALE3 ABSPACK scaling algorithm.
;
_exptl_absorpt_special_details     ?
_exptl_crystal_colour              'clear green'
_exptl_crystal_density_diffrn      4.050
_exptl_crystal_density_meas        ?
_exptl_crystal_density_method      ?
_exptl_crystal_description         Irregular
_exptl_crystal_F_000               1544
_exptl_crystal_size_max            0.159
_exptl_crystal_size_mid            0.108
_exptl_crystal_size_min            0.073
_exptl_transmission_factor_max     ?
_exptl_transmission_factor_min     ?
_diffrn_reflns_av_R_equivalents    0.0943
_diffrn_reflns_av_unetI/netI       0.0326
_diffrn_reflns_Laue_measured_fraction_full  1.000
_diffrn_reflns_Laue_measured_fraction_max  1.000
_diffrn_reflns_limit_h_max         16
_diffrn_reflns_limit_h_min         -16
_diffrn_reflns_limit_k_max         8
_diffrn_reflns_limit_k_min         -8
_diffrn_reflns_limit_l_max         18
_diffrn_reflns_limit_l_min         -18
_diffrn_reflns_number              13963
_diffrn_reflns_point_group_measured_fraction_full  1.000
_diffrn_reflns_point_group_measured_fraction_max  1.000
_diffrn_reflns_theta_full          66.600
_diffrn_reflns_theta_max           66.600
_diffrn_reflns_theta_min           5.702
_diffrn_ambient_temperature        100(2)
_diffrn_detector_area_resol_mean   ?
_diffrn_measured_fraction_theta_full  1.000
_diffrn_measured_fraction_theta_max  1.000
_diffrn_measurement_device_type    'XtaLAB Synergy, Dualflex, HyPix'
_diffrn_measurement_method         'four-circle diffractometer'
_diffrn_radiation_type             CuK\a
_diffrn_radiation_wavelength       1.54184
_diffrn_source                     ?
_reflns_Friedel_coverage           0.000
_reflns_Friedel_fraction_full      .
_reflns_Friedel_fraction_max       .
_reflns_number_gt                  1249
_reflns_number_total               1254
_reflns_special_details
;
 Reflections were merged by SHELXL according to the crystal
 class for the calculation of statistics and refinement.
 
 _reflns_Friedel_fraction is defined as the number of unique
 Friedel pairs measured divided by the number that would be
 possible theoretically, ignoring centric projections and
 systematic absences.
;
_reflns_threshold_expression       'I > 2\s(I)'
_computing_cell_refinement         ?
_computing_data_collection         ?
_computing_data_reduction          ?
_computing_molecular_graphics      ?
_computing_publication_material    ?
_computing_structure_refinement    'SHELXL-2018/3 (Sheldrick, 2018)'
_computing_structure_solution      'SHELXT 2018/2 (Sheldrick, 2018)'
_refine_diff_density_max           1.835
_refine_diff_density_min           -5.078
_refine_diff_density_rms           0.493
_refine_ls_extinction_coef         .
_refine_ls_extinction_method       none
_refine_ls_goodness_of_fit_ref     1.194
_refine_ls_hydrogen_treatment      mixed
_refine_ls_matrix_type             full
_refine_ls_number_parameters       105
_refine_ls_number_reflns           1254
_refine_ls_number_restraints       0
_refine_ls_R_factor_all            0.0395
_refine_ls_R_factor_gt             0.0381
_refine_ls_restrained_S_all        1.194
_refine_ls_shift/su_max            0.001
_refine_ls_shift/su_mean           0.000
_refine_ls_structure_factor_coef   Fsqd
_refine_ls_weighting_details      
 'w=1/[\s^2^(Fo^2^)+(0.0562P)^2^+37.0852P] where P=(Fo^2^+2Fc^2^)/3'
_refine_ls_weighting_scheme        calc
_refine_ls_wR_factor_gt            0.0941
_refine_ls_wR_factor_ref           0.0944
_refine_special_details            ?
_olex2_refinement_description
;
1. Fixed Uiso
 At 1.5 times of:
  All O(H,H) groups, All O(H,H,H) groups
2.a Rotating group:
 O2(H2A,H2B), O3(H3A,H3B)
;
_atom_sites_solution_hydrogens     difmap
_atom_sites_solution_primary       ?
_atom_sites_solution_secondary     ?
loop_
  _atom_site_label
  _atom_site_type_symbol
  _atom_site_fract_x
  _atom_site_fract_y
  _atom_site_fract_z
  _atom_site_U_iso_or_equiv
  _atom_site_adp_type
  _atom_site_occupancy
  _atom_site_site_symmetry_order
  _atom_site_calc_flag
  _atom_site_refinement_flags_posn
  _atom_site_refinement_flags_adp
  _atom_site_refinement_flags_occupancy
  _atom_site_disorder_assembly
  _atom_site_disorder_group
 U1 U 0.60822(2) 0.52563(5) 0.58721(2) 0.0120(2) Uani 1 1 d . . . . .
 S1 S 0.70830(19) 0.0250(3) 0.56705(18) 0.0140(5) Uani 1 1 d . . . . .
 S2 S 0.500000 0.2237(5) 0.750000 0.0134(7) Uani 1 2 d S T P . .
 O1 O 0.5450(5) 0.6235(11) 0.4576(4) 0.0133(14) Uani 1 1 d . . . . .
 O2 O 0.4784(5) 0.7126(11) 0.6438(5) 0.0167(15) Uani 1 1 d . . . . .
 H2A H 0.484268 0.842507 0.632943 0.025 Uiso 1 1 d GR . . . .
 H2B H 0.417998 0.685537 0.616463 0.025 Uiso 1 1 d GR . . . .
 H1 H 0.569(9) 0.71(2) 0.416(8) 0.025 Uiso 1 1 d R . . . .
 O3 O 0.7453(6) 0.5381(11) 0.6984(5) 0.0196(17) Uani 1 1 d . . . . .
 H3A H 0.795430 0.597011 0.679486 0.029 Uiso 1 1 d GR . . . .
 H3B H 0.767053 0.420269 0.710472 0.029 Uiso 1 1 d GR . . . .
 O4 O 0.6448(5) 0.2012(11) 0.5495(5) 0.0169(15) Uani 1 1 d . . . . .
 O5 O 0.7453(6) -0.0382(11) 0.4849(5) 0.0161(16) Uani 1 1 d . . . . .
 O6 O 0.6452(5) -0.1359(11) 0.5968(5) 0.0172(14) Uani 1 1 d . . . . .
 O7 O 0.7887(6) 0.0669(12) 0.6328(5) 0.0191(15) Uiso 1 1 d . . . . .
 O8 O 0.5726(5) 0.3505(12) 0.7110(4) 0.0175(15) Uani 1 1 d . . . . .
 O9 O 0.4458(5) 0.1047(11) 0.6827(5) 0.0175(15) Uani 1 1 d . . . . .

loop_
  _atom_site_aniso_label
  _atom_site_aniso_U_11
  _atom_site_aniso_U_22
  _atom_site_aniso_U_33
  _atom_site_aniso_U_23
  _atom_site_aniso_U_13
  _atom_site_aniso_U_12
 U1 0.0025(3) 0.0157(3) 0.0165(3) 0.00009(11) -0.00509(16) 0.00001(10)
 S1 0.0035(12) 0.0176(12) 0.0200(14) 0.0007(9) -0.0034(10) 0.0005(8)
 S2 0.0044(14) 0.0185(16) 0.0164(16) 0.000 -0.0040(12) 0.000
 O1 0.004(3) 0.018(3) 0.016(3) 0.003(3) -0.006(2) 0.002(3)
 O2 0.005(3) 0.019(4) 0.025(4) -0.001(3) -0.002(3) 0.000(3)
 O3 0.006(4) 0.030(4) 0.023(4) 0.006(3) -0.002(3) -0.002(3)
 O4 0.012(3) 0.018(4) 0.021(4) 0.002(3) 0.000(3) 0.003(3)
 O5 0.007(3) 0.021(4) 0.021(4) 0.000(3) 0.002(3) -0.004(3)
 O6 0.014(3) 0.014(3) 0.023(4) 0.000(3) 0.001(3) 0.000(3)
 O8 0.005(3) 0.024(4) 0.023(4) -0.001(3) -0.003(3) -0.003(3)
 O9 0.009(3) 0.020(4) 0.023(4) 0.000(3) -0.002(3) -0.001(3)

_geom_special_details
;
 All esds (except the esd in the dihedral angle between two l.s. planes)
 are estimated using the full covariance matrix.  The cell esds are taken
 into account individually in the estimation of esds in distances, angles
 and torsion angles; correlations between esds in cell parameters are only
 used when they are defined by crystal symmetry.  An approximate (isotropic)
 treatment of cell esds is used for estimating esds involving l.s. planes.
;
loop_
  _geom_bond_atom_site_label_1
  _geom_bond_atom_site_label_2
  _geom_bond_distance
  _geom_bond_site_symmetry_2
  _geom_bond_publ_flag
 U1 U1 3.8171(6) 5_666 ?
 U1 O1 2.219(7) . ?
 U1 O1 2.354(6) 5_666 ?
 U1 O2 2.406(7) . ?
 U1 O3 2.417(8) . ?
 U1 O4 2.343(7) . ?
 U1 O5 2.378(7) 7_656 ?
 U1 O6 2.352(7) 1_565 ?
 U1 O8 2.356(7) . ?
 S1 O4 1.483(7) . ?
 S1 O5 1.484(8) . ?
 S1 O6 1.488(7) . ?
 S1 O7 1.450(8) . ?
 S2 O8 1.482(7) . ?
 S2 O8 1.482(7) 2_656 ?
 S2 O9 1.463(7) . ?
 S2 O9 1.463(7) 2_656 ?

loop_
  _geom_angle_atom_site_label_1
  _geom_angle_atom_site_label_2
  _geom_angle_atom_site_label_3
  _geom_angle
  _geom_angle_site_symmetry_1
  _geom_angle_site_symmetry_3
  _geom_angle_publ_flag
 O1 U1 U1 34.55(17) . 5_666 ?
 O1 U1 U1 32.31(17) 5_666 5_666 ?
 O1 U1 O1 66.9(3) . 5_666 ?
 O1 U1 O2 71.3(2) 5_666 . ?
 O1 U1 O2 86.8(2) . . ?
 O1 U1 O3 145.3(2) 5_666 . ?
 O1 U1 O3 147.7(3) . . ?
 O1 U1 O4 97.2(3) . . ?
 O1 U1 O5 129.0(3) 5_666 7_656 ?
 O1 U1 O5 79.9(3) . 7_656 ?
 O1 U1 O6 80.0(3) . 1_565 ?
 O1 U1 O8 143.6(2) . . ?
 O1 U1 O8 77.3(2) 5_666 . ?
 O2 U1 U1 76.70(17) . 5_666 ?
 O2 U1 O3 104.9(3) . . ?
 O3 U1 U1 176.77(19) . 5_666 ?
 O4 U1 U1 84.39(17) . 5_666 ?
 O4 U1 O1 74.0(2) . 5_666 ?
 O4 U1 O2 140.1(2) . . ?
 O4 U1 O3 92.7(3) . . ?
 O4 U1 O5 73.0(2) . 7_656 ?
 O4 U1 O6 152.1(2) . 1_565 ?
 O4 U1 O8 78.3(3) . . ?
 O5 U1 U1 106.6(2) 7_656 5_666 ?
 O5 U1 O2 146.0(2) 7_656 . ?
 O5 U1 O3 73.7(3) 7_656 . ?
 O6 U1 U1 106.18(18) 1_565 5_666 ?
 O6 U1 O1 127.9(2) 1_565 5_666 ?
 O6 U1 O2 67.7(2) 1_565 . ?
 O6 U1 O3 77.0(3) 1_565 . ?
 O6 U1 O5 79.2(2) 1_565 7_656 ?
 O6 U1 O8 120.0(2) 1_565 . ?
 O8 U1 U1 109.42(16) . 5_666 ?
 O8 U1 O2 75.5(2) . . ?
 O8 U1 O3 68.6(2) . . ?
 O8 U1 O5 130.8(3) . 7_656 ?
 O4 S1 O5 108.2(4) . . ?
 O4 S1 O6 107.9(4) . . ?
 O5 S1 O6 108.1(4) . . ?
 O7 S1 O4 110.8(4) . . ?
 O7 S1 O5 111.9(4) . . ?
 O7 S1 O6 109.8(4) . . ?
 O8 S2 O8 109.1(6) 2_656 . ?
 O9 S2 O8 107.9(4) . 2_656 ?
 O9 S2 O8 107.9(4) 2_656 . ?
 O9 S2 O8 109.4(4) 2_656 2_656 ?
 O9 S2 O8 109.4(4) . . ?
 O9 S2 O9 113.0(6) . 2_656 ?
 U1 O1 U1 113.1(3) . 5_666 ?
 S1 O4 U1 147.5(4) . . ?
 S1 O5 U1 140.1(5) . 7_656 ?
 S1 O6 U1 145.2(4) . 1_545 ?
 S2 O8 U1 145.8(4) . . ?

_shelx_res_file
;
TITL u2(oh2)_a.res in C2/c
    u-dimer.res
    created by SHELXL-2018/3 at 19:59:13 on 11-Jul-2020
REM Old TITL U2(OH2) in C2/c #15
REM SHELXT solution in C2/c: R1 0.098, Rweak 0.006, Alpha 0.034
REM <I/s> 2.094 for 117 systematic absences, Orientation as input
REM Formula found by SHELXT: O18 S3 U2
CELL 1.54184 13.561978 6.782461 15.592614 90 95.6196 90
ZERR 4 0.000163 0.000072 0.000187 0 0.0011 0
LATT 7
SYMM -X,+Y,0.5-Z
SFAC H O S U
UNIT 40 72 12 8

L.S. 99
PLAN  20
SIZE 0.073 0.108 0.159
TEMP -173.1(4)
list 4
fmap 2
acta
REM <olex2.extras>
REM <HklSrc "%./U-Dimer.hkl">
REM </olex2.extras>

WGHT    0.056200   37.085201
FVAR       0.15073
U1    4    0.608224    0.525627    0.587206    11.00000    0.00252    0.01571 =
         0.01649    0.00009   -0.00509    0.00001
S1    3    0.708295    0.024998    0.567046    11.00000    0.00349    0.01765 =
         0.01996    0.00067   -0.00341    0.00048
S2    3    0.500000    0.223697    0.750000    10.50000    0.00439    0.01846 =
         0.01642    0.00000   -0.00398    0.00000
O1    2    0.544957    0.623495    0.457579    11.00000    0.00376    0.01850 =
         0.01635    0.00292   -0.00575    0.00197
O2    2    0.478408    0.712607    0.643783    11.00000    0.00540    0.01882 =
         0.02528   -0.00146   -0.00182   -0.00007
AFIX   7
H2A   1    0.484268    0.842507    0.632943    11.00000   -1.50000
H2B   1    0.417998    0.685537    0.616463    11.00000   -1.50000
AFIX   0
H1    1    0.568948    0.706046    0.416458    11.00000   -1.50000
O3    2    0.745335    0.538102    0.698441    11.00000    0.00552    0.02979 =
         0.02292    0.00557   -0.00184   -0.00197
AFIX   7
H3A   1    0.795430    0.597011    0.679486    11.00000   -1.50000
H3B   1    0.767053    0.420269    0.710472    11.00000   -1.50000
AFIX   0
O4    2    0.644762    0.201211    0.549451    11.00000    0.01196    0.01779 =
         0.02075    0.00197   -0.00015    0.00257
O5    2    0.745328   -0.038185    0.484910    11.00000    0.00654    0.02066 =
         0.02112   -0.00046    0.00217   -0.00365
O6    2    0.645222   -0.135884    0.596813    11.00000    0.01382    0.01416 =
         0.02345   -0.00019    0.00092   -0.00025
O7    2    0.788663    0.066902    0.632842    11.00000    0.01911
O8    2    0.572582    0.350498    0.710960    11.00000    0.00501    0.02382 =
         0.02267   -0.00063   -0.00345   -0.00273
O9    2    0.445809    0.104683    0.682714    11.00000    0.00899    0.01958 =
         0.02322    0.00033   -0.00173   -0.00122
HKLF 4




REM  u2(oh2)_a.res in C2/c
REM wR2 = 0.0944, GooF = S = 1.194, Restrained GooF = 1.194 for all data
REM R1 = 0.0381 for 1249 Fo > 4sig(Fo) and 0.0395 for all 1254 data
REM 105 parameters refined using 0 restraints

END

WGHT      0.0562     37.1139

REM Highest difference peak  1.835,  deepest hole -5.078,  1-sigma level  0.493
Q1    1   0.6422  0.5182  0.6419  11.00000  0.05    1.83
Q2    1   0.5949  0.5629  0.5313  11.00000  0.05    1.56
Q3    1   0.5642  0.5815  0.4129  11.00000  0.05    1.13
Q4    1   0.6153 -0.2446  0.5924  11.00000  0.05    1.09
Q5    1   0.5043  0.5221  0.6096  11.00000  0.05    1.08
Q6    1   0.3727  0.5366  0.5853  11.00000  0.05    1.07
Q7    1   0.8177  0.0087  0.6065  11.00000  0.05    1.03
Q8    1   0.4937  0.4792  0.4638  11.00000  0.05    1.02
Q9    1   0.7289  0.5718  0.7643  11.00000  0.05    1.01
Q10   1   0.5962  0.2092  0.7102  11.00000  0.05    1.01
Q11   1   0.6192  0.6124  0.3644  11.00000  0.05    0.99
Q12   1   0.4007  0.6866  0.6454  11.00000  0.05    0.96
Q13   1   0.4405  0.6582  0.5811  11.00000  0.05    0.93
Q14   1   0.6621  0.0421  0.4040  11.00000  0.05    0.90
Q15   1   0.7753  0.0267  0.6579  11.00000  0.05    0.90
Q16   1   0.7966  0.5716  0.6287  11.00000  0.05    0.90
Q17   1   0.4406  0.6465  0.6588  11.00000  0.05    0.88
Q18   1   0.5155  0.9016  0.4386  11.00000  0.05    0.87
Q19   1   0.3371  0.7842  0.5920  11.00000  0.05    0.87
Q20   1   0.5799  0.5453  0.4650  11.00000  0.05    0.85
;
_shelx_res_checksum                59354
_shelx_hkl_file
;
   0   0  -1    5.31    1.31
   0   0   1    4.43    1.13
   0   0  -2 2503.15   67.29
   0   0  -2 1760.44   68.87
   0   0   2 2180.86   71.90
   0   0   2 2765.56   70.35
   0   0   2 2196.84   65.64
   0   0   3   16.56    4.83
   0   0   3   11.55    2.95
   0   0  -3    6.35    3.15
   0   0  -3   15.42    2.38
   0   0  -3    7.45    3.33
   0   0   3    5.24    1.33
   0   0   4 2837.96   89.14
   0   0   4 2626.95   94.57
   0   0  -4 2532.84   91.76
   0   0  -4 3018.52   85.84
   0   0   5    7.04    5.29
   0   0  -5    1.18    1.42
   0   0   5    8.30    3.49
   0   0  -5    2.81    1.79
   0   0  -5    4.03    3.73
   0   0   6 6331.13  209.02
   0   0   6 6378.92  198.43
   0   0  -6 5986.58  189.94
   0   0   6 6139.90  206.11
   0   0  -6 6623.41  204.82
   0   0  -7    5.05    1.84
   0   0   7    0.72    4.70
   0   0  -7    2.71    4.16
   0   0   7    3.26    4.14
   0   0  -7   -0.50    3.49
   0   0  -7    9.84    3.02
   0   0  -8 1007.44   55.04
   0   0  -8  946.11   49.03
   0   0   8 1185.19   57.84
   0   0   8 1247.75   61.28
   0   0   9    0.96    4.82
   0   0  -9    4.22    4.45
   0   0  -9    3.20    4.18
   0   0   9    3.41    4.68
   0   0   9    1.25    3.29
   0   0  -9   -1.00    5.04
   0   0  10 1399.02   73.88
   0   0 -10 1692.76   80.83
   0   0 -10 1785.64   76.59
   0   0 -10 1281.51   65.26
   0   0 -10 1112.36   59.32
   0   0  10 1404.37   70.01
   0   0  10 1240.73   63.81
   0   0 -11   -1.27    6.05
   0   0 -11    0.90    3.77
   0   0 -11    2.09    3.71
   0   0  11   -1.78    3.99
   0   0  11    1.20    5.70
   0   0  11    1.03    3.65
   0   0 -12 2862.87  125.80
   0   0 -12 2396.08  106.29
   0   0 -12 2943.17  118.41
   0   0  12 2993.92  117.81
   0   0  12 2292.56  115.73
   0   0  12 2375.88  106.63
   0   0  12 2646.14  120.43
   0   0 -13    0.97    3.76
   0   0 -13    4.76    5.34
   0   0 -13   13.24    8.74
   0   0  13    3.69    5.16
   0   0  13    1.98    3.84
   0   0  13    7.85    6.17
   0   0  13    2.82    4.48
   0   0  14  222.53   28.16
   0   0 -14  164.35   21.41
   0   0 -14  181.22   24.99
   0   0 -14  222.83   30.51
   0   0  14  200.82   25.11
   0   0  14  216.23   23.78
   0   0  14  163.27   25.78
   0   0  15    1.16    4.51
   0   0 -15    4.69    5.27
   0   0 -15    2.95    5.73
   0   0  15    9.32    5.69
   0   0  15   -1.38    4.90
   0   0  15    3.90    6.52
   0   0  15    3.28    3.44
   0   0 -15    1.61    3.62
   0   0  16  949.92   53.57
   0   0  16  929.33   55.97
   0   0 -17    1.25    1.14
   0   0  17    0.75    3.37
   0   0  17    1.72    3.87
   0   0  17   -2.08    5.72
   0   0 -17   -0.90    4.73
   0   0 -18 1565.94   71.34
   0   0 -18 1536.26   73.83
   0   2   0 8328.83  243.94
   0  -2   0 8047.20  239.59
   0  -2  -1  727.57   32.93
   0   2  -1  650.10   34.96
   0   2   1  758.81   35.57
   0   2  -1  837.72   32.02
   0  -2   1  755.19   42.91
   0  -2  -2 2908.11   91.79
   0   2  -2 2574.39   88.82
   0   2  -2 1750.33   78.62
   0  -2  -2 2695.19   80.50
   0   2  -2 3471.98   83.01
   0  -2   2 2183.47   86.83
   0   2  -2 3315.03   86.74
   0  -2   2 2519.12   94.57
   0   2   2 2750.59   89.76
   0  -2  -2 2253.31   90.53
   0  -2   2 2625.42   97.73
   0   2  -3  606.57   31.21
   0  -2  -3  845.29   33.00
   0   2  -3  815.01   36.40
   0   2   3  737.05   42.31
   0   2  -3  936.26   32.66
   0   2   3  779.74   37.03
   0  -2  -3  691.38   37.35
   0  -2   3  769.62   40.90
   0  -2   3  736.95   36.00
   0  -2  -3  917.65   41.55
   0  -2  -4 2636.84   93.34
   0   2   4 1991.24   89.78
   0   2  -4 1821.87   79.91
   0  -2  -4 2578.38   83.53
   0   2  -4 2961.17   77.37
   0   2   4 2311.54   85.69
   0  -2   4 2426.14   92.65
   0  -2  -4 2077.08   84.40
   0  -2   4 2387.60   86.92
   0  -2  -4 2342.63   83.32
   0   2   4 2384.94   91.24
   0   2   5    4.60    3.81
   0  -2   5   10.23    5.81
   0   2   5   15.93    7.45
   0  -2  -5   12.93    4.32
   0   2   5   15.99    6.80
   0  -2  -5   11.78    5.61
   0  -2  -5   16.40    5.36
   0   2  -5    5.63    4.07
   0   2   5    5.38    5.98
   0   2   5   12.88    6.22
   0   2   5    4.47    4.31
   0   2   6 3817.08  149.91
   0   2  -6 3661.05  140.46
   0  -2  -6 5216.11  147.75
   0  -2  -6 5402.00  158.62
   0   2   6 4262.16  146.61
   0   2   6 4224.46  150.82
   0  -2   6 4661.71  154.91
   0   2   6 3966.58  140.05
   0   2   6 4181.75  151.63
   0  -2  -6 4415.17  151.82
   0  -2  -6 3834.85  142.16
   0   2  -6 5675.64  141.78
   0  -2  -6 3559.17  136.46
   0  -2  -6 4090.30  134.08
   0   2   6 3406.74  146.44
   0   2   6 4191.12  150.01
   0  -2  -6 3978.86  143.19
   0  -2  -7   74.95   12.48
   0   2   7   99.62   15.96
   0  -2   7  107.42   13.79
   0  -2  -7   87.31   14.81
   0   2   7   85.35   15.17
   0   2  -7  115.71   11.91
   0  -2  -7   71.25   10.64
   0  -2  -7   94.41   16.48
   0   2   7   87.37   15.48
   0  -2  -7  120.79   15.48
   0   2  -7   66.34   12.18
   0   2   7   96.59   15.37
   0   2   7   78.94   14.80
   0   2   7   75.71   11.23
   0  -2   7  110.94   17.05
   0  -2  -8 1047.86   55.34
   0   2   8 1061.14   62.25
   0  -2  -8 1356.43   62.65
   0   2  -8  916.85   54.50
   0   2   8 1062.13   60.56
   0  -2   8 1244.44   57.66
   0  -2   8 1286.29   56.49
   0   2   8 1173.36   65.58
   0   2  -8 1378.53   51.68
   0  -2  -8  927.56   48.74
   0  -2  -8 1181.91   65.38
   0   2   8 1072.50   60.30
   0   2   8  908.44   60.63
   0  -2   8 1251.32   66.43
   0  -2  -9  260.47   25.26
   0   2  -9  234.82   24.09
   0   2  -9  244.93   23.76
   0  -2  -9  359.62   28.97
   0   2  -9  375.59   27.81
   0   2   9  296.97   30.97
   0   2  -9  268.53   27.09
   0  -2  -9  351.19   30.56
   0   2   9  261.99   28.06
   0  -2   9  312.97   27.27
   0  -2   9  341.09   26.84
   0   2   9  341.12   33.40
   0   2  -9  384.06   23.61
   0  -2  -9  256.73   22.12
   0  -2  -9  281.15   29.19
   0  -2  -9  279.64   30.65
   0   2   9  231.18   28.89
   0   2   9  278.09   28.39
   0  -2   9  295.27   30.94
   0  -2 -10 2615.65   99.07
   0   2 -10 2012.56   90.91
   0   2 -10 1832.63   88.36
   0   2 -10 2826.42   97.25
   0   2  10 2500.72  107.26
   0   2 -10 1810.45   93.29
   0  -2 -10 2851.89  107.57
   0   2  10 1906.39   94.54
   0  -2 -10 1907.38   88.32
   0  -2  10 2625.07   98.98
   0   2  10 2043.20  102.21
   0  -2  10 2488.70   93.67
   0   2  10 1699.51   83.70
   0  -2 -10 2513.57  107.39
   0  -2 -10 2634.94  106.58
   0   2  10 1718.11  100.10
   0  -2  10 2352.84  105.32
   0   2 -11   97.46   14.81
   0   2  11  138.00   21.47
   0   2 -11  100.83   18.00
   0  -2 -11  154.61   22.03
   0   2  11   88.44   16.31
   0  -2  11  164.74   20.54
   0  -2 -11  104.37   15.59
   0   2  11  106.33   19.75
   0  -2  11  123.04   16.68
   0   2  11   83.75   19.06
   0  -2 -11  123.79   20.00
   0  -2 -11  151.22   20.11
   0   2 -11   89.54   14.92
   0   2 -11  107.51   16.74
   0   2  11   94.32   19.32
   0  -2  11  115.32   20.04
   0   2 -12 2353.79   91.77
   0   2  12 2771.13  111.01
   0  -2 -12 2730.04  110.33
   0   2 -12 1776.85   96.25
   0   2  12 1536.78   93.98
   0   2  12 2061.06   94.42
   0  -2  12 2303.51   95.53
   0  -2 -12 2117.22   90.87
   0  -2  12 2296.49   91.13
   0   2  12 1851.48   98.61
   0   2  12 1452.79   97.20
   0  -2 -12 2625.90  107.71
   0  -2 -12 2495.66  100.44
   0   2 -12 1907.26   88.14
   0   2 -12 1906.60   91.77
   0  -2  12 2192.77  104.32
   0   2  12 2286.87  111.87
   0   2 -13  117.82   16.41
   0   2 -13  137.67   17.38
   0   2  13  173.47   23.30
   0   2 -13   98.95   19.01
   0  -2 -13  154.62   22.92
   0   2  13   84.42   17.86
   0   2  13  147.60   19.79
   0  -2  13  137.89   18.77
   0  -2 -13  111.83   16.26
   0  -2  13  146.53   17.73
   0   2  13  110.61   19.70
   0   2  13   78.61   18.79
   0  -2 -13  150.96   22.33
   0  -2 -13  139.28   19.95
   0   2 -13   96.68   16.93
   0   2  13  170.91   26.28
   0  -2  13  132.53   21.49
   0  -2  14  323.19   28.30
   0  -2 -14  251.75   24.46
   0   2 -14  316.20   26.55
   0   2 -14  247.51   27.03
   0  -2 -14  340.48   31.15
   0   2 -14  211.95   27.53
   0  -2 -14  274.33   30.78
   0  -2  14  289.98   31.67
   0   2  14  431.96   40.66
   0   2  14  339.98   31.57
   0   2 -14  258.57   27.39
   0   2  14  256.90   30.09
   0  -2  14  281.22   30.61
   0   2 -15  114.08   16.91
   0   2 -15   79.55   14.77
   0  -2 -15  124.86   17.81
   0  -2  15  119.54   18.79
   0   2  15  134.47   20.32
   0  -2  15  127.26   16.26
   0  -2 -16  879.66   56.46
   0   2 -16  785.64   45.79
   0   2 -16  703.01   45.56
   0  -2 -16  854.35   47.61
   0   2  16  959.83   51.96
   0  -2  16  889.25   50.50
   0  -2  16  889.66   50.88
   0   2  16  708.45   48.04
   0  -2  16  897.66   43.46
   0   2  17  106.06   14.23
   0   2  17  109.60   14.47
   0  -2 -17  102.80   12.78
   0  -2 -17  105.08   15.80
   0   2 -17  106.48   13.35
   0   2  17  150.34   15.72
   0  -2  17  127.23   15.93
   0  -2  17  128.19   15.52
   0   2 -17   89.93   13.03
   0  -2 -17  103.47   13.24
   0   4   0 3771.65  136.35
   0  -4   0 4679.86  150.03
   0   4   0 3535.67  133.64
   0   4   0 4295.77  146.75
   0  -4   0 4591.61  151.94
   0   4   0 3665.85  141.23
   0   4   0 3731.19  133.75
   0   4   0 4066.41  139.40
   0   4   0 4053.69  135.39
   0   4   0 3696.06  128.19
   0   4  -1  989.89   48.19
   0   4   1  951.69   49.91
   0  -4  -1 1167.06   56.53
   0  -4   1  989.89   53.58
   0   4   1 1021.24   49.17
   0  -4  -1 1144.15   58.32
   0  -4   1 1042.71   53.60
   0   4  -1  897.73   47.28
   0   4   1  790.73   44.87
   0  -4  -1 1161.01   61.00
   0   4  -1 1003.90   52.24
   0  -4  -1 1187.96   60.59
   0   4   1  895.14   50.81
   0   4  -1  946.53   53.43
   0   4   1  948.36   49.01
   0   4   1  955.48   51.10
   0   4   1  910.93   48.23
   0   4  -1  864.20   39.26
   0   4   2  904.87   51.16
   0   4   2  848.00   48.91
   0  -4  -2 1041.23   53.48
   0  -4   2  906.02   50.87
   0  -4   2  887.60   50.81
   0   4   2  944.19   49.56
   0   4  -2  882.86   46.82
   0   4  -2  958.77   48.75
   0  -4  -2 1040.30   58.11
   0  -4  -2 1020.82   56.73
   0   4  -2  859.22   51.35
   0   4   2  849.85   48.42
   0  -4  -2 1031.88   53.08
   0   4  -2  928.71   45.54
   0   4  -3 2063.03   84.25
   0  -4   3 1856.80   78.97
   0   4   3 1930.62   86.20
   0   4   3 2045.46   88.22
   0  -4  -3 2388.38   90.62
   0  -4   3 1883.53   85.04
   0   4   3 2066.14   86.81
   0  -4   3 2021.40   87.08
   0   4  -3 2119.64   82.16
   0   4   3 1878.47   81.63
   0  -4  -3 2080.71   91.30
   0  -4  -3 2199.35   94.07
   0   4  -3 1925.52   77.43
   0   4   3 2096.17   89.72
   0   4   3 1942.81   85.81
   0   4   3 1615.07   73.16
   0  -4  -3 2175.60   86.83
   0   4   3 1881.14   83.77
   0  -4   3 2219.96   93.90
   0   4  -3 2168.64   78.77
   0   4  -4  823.13   46.88
   0  -4  -4  819.73   51.43
   0   4   4  857.60   48.99
   0  -4   4  731.15   46.91
   0   4   4  856.82   49.95
   0   4  -4  846.83   44.04
   0   4   4  673.04   41.87
   0  -4  -4  956.36   51.78
   0  -4   4  692.57   41.10
   0   4   4  775.54   48.17
   0  -4  -4  779.18   45.55
   0   4   4  749.11   45.71
   0  -4   4  740.10   48.64
   0   4   4  808.50   48.68
   0   4   4  589.80   38.12
   0   4  -5  216.74   24.41
   0   4   5  242.60   24.08
   0   4   5  224.85   25.03
   0  -4   5  186.48   20.38
   0  -4  -5  269.46   25.72
   0  -4  -5  256.16   26.81
   0   4   5  215.81   24.72
   0  -4  -5  194.87   23.12
   0  -4   5  211.03   24.04
   0   4   5  229.97   21.41
   0   4  -5  289.68   22.41
   0   4   5  184.01   19.99
   0  -4  -5  229.38   22.03
   0   4   5  215.17   24.56
   0  -4  -5  216.81   19.92
   0   4   5  195.85   20.69
   0  -4   5  215.36   25.20
   0   4   5  208.01   22.75
   0  -4   6 2532.84  109.87
   0   4   6 2461.70  111.97
   0  -4   6 2649.32  118.15
   0  -4  -6 3455.97  127.08
   0  -4  -6 2838.21  116.62
   0   4   6 2831.78  121.27
   0  -4   6 2835.69  119.11
   0   4   6 2661.86  107.38
   0   4  -6 3586.17  110.67
   0   4  -6 3109.01  110.36
   0   4   6 2867.21  109.61
   0  -4  -6 3069.83  111.55
   0   4  -6 2397.75  111.23
   0   4   6 3727.08  125.22
   0   4   6 2155.59  106.78
   0  -4  -6 3253.83  106.81
   0  -4  -6 3369.35  110.07
   0   4  -7  481.39   29.53
   0  -4  -7  413.60   27.92
   0   4  -7  329.46   30.64
   0  -4   7  348.07   33.93
   0   4   7  319.72   30.76
   0  -4  -7  480.72   39.30
   0   4   7  395.00   37.22
   0  -4   7  374.39   34.40
   0  -4  -7  383.91   32.92
   0   4   7  318.25   26.08
   0   4  -7  472.38   29.16
   0   4  -7  402.71   29.17
   0   4  -7  435.02   28.72
   0  -4  -7  386.60   28.90
   0  -4   7  368.35   31.31
   0   4   7  274.62   28.55
   0  -4  -7  375.91   31.30
   0   4  -8  243.42   21.17
   0  -4  -8  247.66   29.67
   0  -4  -8  224.72   18.97
   0   4  -8  168.00   21.82
   0  -4   8  195.03   25.17
   0  -4  -8  207.51   23.85
   0  -4  -8  272.61   29.84
   0   4  -8  243.09   21.95
   0   4  -8  217.47   19.54
   0  -4  -8  235.28   29.46
   0  -4  -8  224.77   20.86
   0  -4  -8  214.75   23.09
   0   4   8  201.22   26.01
   0  -4   8  199.19   23.08
   0   4   8  121.04   19.44
   0   4   9 1264.82   75.73
   0  -4   9 1468.99   74.01
   0  -4   9 1479.70   78.69
   0   4   9  966.86   67.26
   0   4  -9 1660.89   69.24
   0  -4  -9 1535.19   83.01
   0  -4  -9 1571.44   66.40
   0   4  -9 1261.26   70.96
   0   4  -9 1937.46   71.97
   0  -4  -9 1955.46   92.25
   0  -4  -9 1655.90   74.66
   0   4 -10  580.05   34.30
   0  -4 -10  589.26   46.52
   0   4 -10  465.71   35.90
   0   4 -10  465.04   38.12
   0  -4  10  438.53   35.40
   0   4  10  273.52   30.95
   0  -4  10  470.07   34.48
   0   4  10  358.56   35.41
   0  -4  10  412.16   37.37
   0   4  10  371.81   37.46
   0   4  10  344.11   31.96
   0   4 -10  509.77   32.55
   0  -4 -10  469.78   29.89
   0  -4 -10  530.91   43.25
   0   4  10  268.74   30.70
   0  -4 -10  483.05   35.34
   0  -4 -11   13.01    5.78
   0   4 -11   17.54    8.04
   0  -4  11   13.02    5.79
   0  -4  11   11.89    6.17
   0   4  11   21.95    8.54
   0   4  11   10.87    6.91
   0  -4 -11   10.30    5.49
   0   4  11    6.05    6.38
   0   4  11   11.28    5.69
   0  -4 -11    7.90    7.60
   0  -4 -11   15.47    7.65
   0  -4 -11   13.75    7.94
   0   4 -11   17.61    6.66
   0   4  11    9.90    5.25
   0   4  11   15.24    7.90
   0  -4  11   29.24   10.03
   0   4  12 1397.93   73.49
   0   4  12  996.40   67.65
   0  -4  12 1552.79   73.05
   0  -4  12 1437.85   74.91
   0   4  12 1300.99   75.70
   0   4  12 1838.96   73.82
   0  -4 -12 1902.49   83.23
   0  -4 -12 1689.40   80.07
   0   4 -12 1669.46   73.15
   0  -4 -12 1914.36   86.93
   0   4 -12 1612.31   70.16
   0  -4 -12 1729.19   71.06
   0   4 -12 1648.19   75.87
   0  -4 -13  295.14   22.59
   0   4 -13  287.03   25.05
   0   4 -13  322.29   29.93
   0  -4 -13  320.15   28.17
   0  -4  13  295.30   27.25
   0   4 -13  307.65   22.40
   0   4  13  183.76   22.17
   0  -4  13  299.83   25.24
   0   4  13  294.28   25.74
   0   4 -13  293.15   23.41
   0  -4 -13  300.08   27.97
   0   4  14   65.42   10.82
   0  -4 -14  125.96   12.69
   0  -4 -14  144.40   16.89
   0   4  14   86.85   12.79
   0  -4  14  124.62   16.20
   0   4 -14  129.92   13.78
   0  -4 -14  152.40   17.28
   0   4  14  165.31   16.48
   0  -4  14  141.72   15.33
   0   4  14   99.18   14.29
   0   4 -14  151.42   18.73
   0   4 -14  126.22   14.68
   0  -4  15  658.11   31.98
   0   4 -15  687.90   34.59
   0  -4  15  666.76   28.32
   0  -4 -15  585.05   28.00
   0   4 -16  295.76   20.70
   0  -4 -16  331.70   19.73
   0  -4  16  272.34   19.20
   0   6   0 1049.18   47.75
   0   6   0  979.35   52.03
   0   6   0 1125.45   55.75
   0   6   0 1035.31   55.42
   0   6   0 1043.58   55.97
   0  -6   0 1045.89   53.38
   0  -6   0 1031.14   54.33
   0  -6   0 1201.28   53.57
   0  -6   0 1062.90   49.83
   0   6  -1 1118.52   51.78
   0   6   1 1196.19   51.54
   0   6   1 1244.85   60.32
   0   6   1 1228.75   59.20
   0   6  -1 1220.15   56.52
   0   6  -1 1226.99   60.98
   0   6   1 1131.99   58.60
   0   6   1 1157.96   59.20
   0   6  -1 1101.83   59.88
   0  -6  -1 1180.16   58.30
   0  -6  -1 1275.41   60.97
   0  -6   1 1208.28   57.97
   0  -6   1 1221.09   59.30
   0  -6  -1 1194.76   54.28
   0  -6   1 1163.98   53.05
   0  -6   1 1288.97   56.85
   0  -6  -1 1298.42   57.32
   0  -6  -2  394.13   27.85
   0  -6   2  400.26   27.71
   0   6  -2  362.58   25.24
   0   6   2  419.92   25.12
   0   6   2  380.53   28.74
   0   6  -2  373.94   28.59
   0   6   2  338.03   28.03
   0   6   2  338.98   27.74
   0  -6   2  352.43   27.65
   0  -6  -2  391.78   30.42
   0   6   2  376.49   27.75
   0  -6   2  369.88   24.97
   0   6   3 2282.54   93.89
   0  -6  -3 2718.27   93.89
   0  -6   3 2441.54   91.24
   0  -6   3 2191.23   88.43
   0  -6  -3 2606.81   95.46
   0   6   3 2214.24   91.16
   0   6  -3 2515.55   94.12
   0   6   3 2067.01   90.63
   0   6  -3 2249.74   94.60
   0   6  -3 2180.03   93.12
   0   6   3 2219.84   91.13
   0  -6  -3 2584.37   98.45
   0  -6   3 2343.55   92.50
   0   6   3 2405.91   84.48
   0  -6   3 2170.69   84.48
   0  -6  -3 2402.92   89.64
   0   6   4  294.96   26.48
   0  -6   4  264.55   22.89
   0  -6  -4  310.49   25.48
   0  -6   4  285.94   23.18
   0  -6  -4  290.71   23.80
   0   6   4  273.64   23.04
   0   6  -4  265.10   22.96
   0   6   4  270.95   23.55
   0  -6  -4  335.98   22.82
   0   6  -4  278.54   24.80
   0   6   4  289.56   23.51
   0  -6   4  266.53   23.68
   0   6   4  298.47   20.23
   0  -6   4  261.83   19.41
   0  -6  -4  313.41   23.22
   0  -6   5  599.58   31.94
   0  -6  -5  750.68   38.44
   0  -6   5  693.30   40.73
   0   6   5  744.60   39.44
   0   6   5  633.29   42.00
   0  -6   5  654.14   38.98
   0  -6  -5  789.14   42.77
   0  -6  -5  814.11   42.06
   0  -6   5  663.46   38.71
   0  -6   5  667.00   37.20
   0   6   5  631.14   41.82
   0   6   5  652.74   37.48
   0   6  -5  761.40   40.36
   0  -6  -5  758.42   36.68
   0   6  -5  715.05   41.47
   0   6   5  671.31   38.40
   0   6   5  833.91   35.80
   0   6  -5  640.08   41.19
   0   6   6  878.24   50.60
   0  -6   6  978.63   48.59
   0  -6   6  885.97   46.47
   0  -6  -6 1159.05   51.11
   0  -6   6  964.23   46.25
   0  -6  -6 1116.19   51.41
   0   6  -6  977.92   47.35
   0   6   6  879.92   44.18
   0   6  -6  957.79   48.47
   0   6  -6  988.99   51.59
   0  -6   6  890.72   47.76
   0   6  -6  812.23   48.36
   0  -6  -6 1048.18   45.72
   0  -6   6  793.86   37.22
   0  -6   7  554.75   32.84
   0  -6  -7  674.92   36.29
   0  -6  -7  707.98   37.82
   0  -6   7  573.40   34.39
   0   6   7  617.31   31.83
   0   6   7  475.54   34.49
   0   6  -7  559.11   32.84
   0   6  -7  515.39   32.93
   0   6   7  525.75   36.66
   0   6  -7  588.60   36.85
   0   6  -7  469.47   34.45
   0  -6  -7  630.92   31.90
   0  -6   8  204.68   17.96
   0  -6   8  190.37   18.05
   0   6   8  180.63   18.85
   0  -6  -8  265.48   24.03
   0   6  -8  193.48   17.52
   0   6   8  174.26   19.05
   0   6  -8  211.16   18.76
   0   6  -8  204.33   19.54
   0   6  -8  179.28   19.33
   0  -6  -8  222.64   15.94
   0   6   9  819.27   35.65
   0   6   9  821.47   36.97
   0   6  -9  866.70   32.49
   0   6  -9  932.38   36.87
   0  -6   9 1017.88   37.64
   0  -6   9 1013.55   35.98
   0  -6  10  331.99   21.38
   0  -6  10  322.11   21.72
   0   6  10  295.74   21.57
   0  -6 -10  425.74   26.66
   0  -6 -10  407.34   25.87
   0   6 -10  285.98   20.70
   0  -6 -10  353.57   20.31
   0  -6 -10  341.97   18.77
   0   6  11  141.74   12.55
   0  -6 -11  155.02   14.05
   0  -6 -11  172.43   14.80
   0  -6  11  146.00   12.22
   0  -6  11  147.45   12.78
   0   6 -11  155.99   14.77
   0  -6 -11  130.77    9.89
   0   6 -12  312.73   20.64
   0   6  12  459.71   21.23
   0  -6 -12  476.38   23.35
   0   6 -12  434.62   22.43
   0  -6 -12  377.63   17.08
   0  -6  12  406.96   20.77
   0   6  12  388.04   21.49
   0  -8   0  164.81    9.74
   0   8   0  183.44   11.07
   0   8   0  190.25   12.86
   0  -8  -1  205.77   11.30
   0  -8   1  207.11   10.98
   0   8   1  241.96   12.81
   0   8  -1  207.12   12.20
   0   8  -1  231.73   13.72
   0   8  -1  235.51   14.52
   0   8   1  241.47   14.49
   0  -8  -2   26.91    3.53
   0  -8   2   27.38    3.21
   0   8  -2   26.07    3.85
   0   8   2   41.09    5.38
   0   8  -2   33.27    5.08
  -1  -1  18 1847.14   71.14
  -1   1  18 1533.64   65.89
  -1  -1  18 1872.53   69.71
   1   1 -18 1517.08   65.46
   1   1 -18 1555.41   63.97
   1  -1 -18 1638.40   63.15
  -1   1  18 1891.22   68.47
  -1  -1  18 1945.49   63.99
  -1   1  17   31.68    9.08
  -1  -1  17   42.75   10.79
  -1   1  17   26.89    8.97
   1  -1 -17   20.22    5.96
  -1   1  17   33.40    8.18
  -1   1  17   21.18    8.17
  -1  -1  17   33.33    8.22
   1   1 -17   17.72    6.92
   1  -1 -17   24.10    7.78
   1   1 -16  151.48   20.77
   1  -1 -16  195.23   22.77
   1   1 -16  178.61   19.45
  -1  -1  16  193.14   25.25
  -1   1  16  227.50   24.22
  -1   1  16  162.60   23.31
  -1  -1  16  203.40   22.83
  -1   1  16  187.73   24.13
   1   1 -15  256.80   28.37
   1  -1 -15  300.97   30.21
   1   1 -15  283.71   26.72
  -1  -1  15  329.99   29.87
  -1   1  15  256.82   30.61
  -1   1  15  220.70   29.49
  -1  -1  15  318.29   31.16
  -1   1  15  298.00   30.51
  -1  -1  14 1585.69   83.52
  -1   1  14 1966.92   87.40
   1  -1 -14 1940.38   94.90
   1   1 -14 1630.72   89.94
   1   1 -14 1663.85   83.24
   1   1 -14 1613.07   76.56
   1  -1 -14 1832.93   85.72
  -1   1  14 1256.20   80.41
  -1  -1  14 1754.77   82.68
  -1   1  14 2014.11   95.04
  -1  -1  14 1477.56   86.20
  -1   1  14 1127.83   78.25
  -1   1  14 1392.11   78.90
  -1   1  13    6.76    6.44
  -1  -1  13    1.09    4.59
  -1   1  13    1.14    3.61
   1   1 -13    2.80    5.88
   1  -1 -13    8.27    6.56
   1  -1 -13    4.50    6.18
   1   1 -13   -0.94    3.96
   1   1 -13   11.18    6.40
  -1   1  13    5.44    5.72
  -1   1  13   -1.36    3.74
  -1  -1  13    1.42    3.90
  -1   1  13    2.38    4.22
  -1  -1  13    1.19    5.68
   1  -1 -13   -0.88    3.12
  -1  -1  12 3045.41  114.20
  -1   1  12 2439.51  121.11
  -1  -1  12 2959.45  127.28
   1  -1 -12 2538.13  113.53
  -1  -1  12 3062.46  125.19
  -1   1  12 2618.96  130.79
   1  -1 -12 3443.62  130.08
   1  -1 -12 3815.17  134.21
   1   1 -12 2836.51  119.30
   1  -1 -12 3253.84  124.68
   1   1 -12 3128.18  126.18
   1  -1 -12 3750.66  141.88
   1   1 -12 3126.86  133.90
  -1   1  12 3283.87  129.69
  -1   1  12 2817.82  130.20
  -1  -1  11  200.20   20.36
  -1   1  11  187.09   20.21
  -1   1  11  167.42   23.17
   1  -1 -11  137.38   18.20
  -1  -1  11  204.85   25.04
  -1   1  11  196.86   23.55
  -1  -1  11  202.16   23.73
  -1   1  11  162.20   24.52
   1  -1 -11  192.49   23.66
   1   1 -11  164.98   19.66
   1  -1 -11  182.22   21.94
   1   1 -11  199.11   23.67
   1  -1 -11  258.64   26.96
   1   1 -11  186.96   25.27
   1  -1 -11  224.52   27.53
  -1   1  11  176.52   23.17
  -1   1  11  156.27   23.17
  -1   1  10  119.55   18.30
  -1   1  10  112.92   15.42
  -1   1  10   70.84   14.15
  -1  -1  10  118.78   15.18
   1  -1 -10   86.85   13.92
  -1  -1  10  130.63   18.13
  -1   1  10   99.60   16.70
  -1   1  10  113.65   19.72
   1  -1 -10  101.42   16.65
   1   1 -10  122.91   19.31
   1  -1 -10  127.66   19.70
   1   1 -10  114.14   17.05
   1   1 -10  106.53   15.55
   1  -1 -10  120.03   17.83
   1  -1 -10  103.14   16.05
   1  -1 -10  141.19   11.18
  -1   1  10  109.18   18.34
   1  -1  -9  273.38   15.57
   1  -1  -9  164.40   18.52
  -1  -1   9  225.89   23.09
   1   1  -9  257.70   18.63
  -1   1   9  252.37   25.09
   1  -1  -9  195.76   16.82
   1  -1  -9  223.41   23.79
  -1   1   9  213.05   20.80
  -1  -1   9  198.43   18.76
   1  -1  -9  231.31   24.59
   1  -1  -9  189.69   14.63
  -1   1   9  177.38   22.03
   1  -1  -8 2225.14  101.00
   1   1  -8 3309.79   99.87
  -1  -1   8 2998.27  109.85
  -1   1   8 3253.21  115.64
   1  -1  -8 2576.28   97.52
   1  -1  -8 2916.47  111.78
   1  -1  -8 2881.01  112.84
   1  -1  -8 2259.53   98.42
  -1   1   8 2302.95  107.26
  -1  -1   8 2916.93  102.51
  -1   1   8 2772.68  106.01
   1  -1  -8 3334.94  117.68
   1  -1  -8 2511.93  103.81
  -1  -1   8 2838.31   92.01
   1   1  -8 3326.13   99.62
   1  -1  -8 3562.02   94.39
   1   1  -7   89.74    9.52
   1  -1  -7   60.23   10.30
   1  -1  -7   70.97   12.68
   1  -1  -7   58.00   10.96
   1  -1  -7   50.12    8.63
  -1  -1   7   66.89   12.58
   1  -1  -7   94.95   14.20
   1   1  -7   93.61    9.89
  -1   1   7   88.02   13.58
  -1  -1   7   96.86   13.11
  -1   1   7   88.47   12.48
  -1   1   6 3444.51  112.21
   1   1  -6 2711.92   98.42
  -1  -1   6 3261.56  115.19
   1   1  -6 3691.18  102.87
   1  -1  -6 2697.23  105.70
   1   1  -5  194.24   15.63
  -1   1   5  233.55   18.57
   1   1  -5  159.14   11.46
  -1  -1   5  185.87   18.09
   1  -1  -5  142.21   14.39
  -1  -1   5  212.72   10.69
   1   1  -4  429.49   22.67
   1  -1  -4  338.36   20.00
  -1   1   4  447.04   25.40
  -1   1   4  414.43   25.52
   1   1  -4  357.71   17.02
  -1  -1   4  394.62   25.85
  -1   1   4  419.54   20.94
   1   1  -4  407.58   15.40
  -1  -1   4  437.73   15.64
   1   1  -3  730.29   27.86
   1   1  -3  657.50   24.73
  -1  -1   3  712.61   35.59
   1   1  -3  761.85   31.13
  -1   1   3  722.21   29.34
  -1   1   3  467.58   28.49
   1   1  -3  740.71   33.57
  -1   1   3  770.67   33.57
   1  -1  -3  642.80   29.46
  -1   1   3  903.27   35.68
   1   1  -2 4830.89  128.49
  -1   1   2 4351.43  130.42
   1   1  -2 3996.19  126.63
  -1  -1   2 4111.28  138.73
   1   1  -2 4822.00  133.69
   1   1  -2 4370.93  135.64
  -1   1   2 3035.72  130.31
   1  -1  -2 4137.50  130.78
  -1   1   2 5274.27  136.95
  -1   1   2 4382.37  131.56
   1   1  -1  183.02    9.41
  -1   1   1  188.38    9.99
  -1  -1   1  157.08   15.66
  -1   1   1  194.15   11.51
  -1  -1   1  150.58   13.38
   1   1  -1  166.07   10.34
   1  -1  -1  136.10   12.50
   1  -1  -1  157.03    9.80
  -1  -1   0 4601.78  122.84
   1  -1   0 3920.10  117.02
   1  -1   0 4314.56  122.74
   1  -1   0 4891.46  131.98
  -1  -1   0 4284.98  125.17
   1  -1   0 3888.04  126.35
  -1   1   0 5449.68  125.05
   1   1   0 4309.85  117.63
  -1  -1  -1   14.74    3.58
  -1   1  -1   15.65    3.56
  -1  -1  -1    8.62    4.23
  -1   1  -1   10.99    4.77
   1  -1   1   11.99    2.71
   1  -1   1   11.68    2.78
   1  -1   1   11.23    3.19
   1  -1   2   29.16    3.73
   1   1   2   20.69    5.79
  -1  -1  -2   21.85    5.30
  -1   1  -2   48.96    7.37
  -1  -1  -2   17.91    3.59
   1  -1   2   40.91    4.07
   1   1   3  637.08   32.38
   1  -1   3  678.19   26.42
   1  -1   3  630.72   26.20
   1  -1   3  653.48   21.08
  -1  -1  -3  642.93   30.24
  -1  -1  -4 2591.43   98.70
  -1  -1  -4 3627.02  109.43
  -1   1  -4 2877.21  105.47
   1  -1   4 3569.30  102.89
   1   1   4 3211.33  109.29
   1  -1   4 3303.48  101.33
   1  -1   4 3127.48   89.15
   1   1   4 2447.38  103.39
   1   1   5  816.99   41.54
   1  -1   5  875.90   38.51
   1  -1   5  820.76   36.61
  -1  -1  -5  870.47   42.22
  -1   1  -5  743.94   40.07
   1   1   6 3482.86  123.57
   1  -1   6 3841.05  121.97
  -1  -1  -6 4231.08  130.94
  -1   1  -6 3500.78  125.77
   1  -1   6 3603.00  119.01
   1   1   6 3356.60  112.25
  -1  -1  -6 2937.45  114.90
  -1  -1  -7  295.10   22.38
   1   1   7  264.35   26.95
   1  -1   7  416.09   28.20
   1   1   7  321.24   25.73
  -1  -1  -7  282.92   25.89
   1   1   7  280.49   18.30
   1  -1   7  350.03   24.68
  -1   1  -7  386.19   29.91
  -1  -1  -7  410.57   30.98
   1   1   7  314.76   25.73
  -1  -1  -7  256.19   20.34
  -1  -1  -8  584.81   36.11
   1   1   8  771.91   47.20
   1   1   8  752.78   43.26
   1  -1   8  924.74   47.86
   1   1   8  682.10   47.88
  -1  -1  -8  714.38   46.32
   1  -1   8  871.29   43.89
   1   1   8  682.61   42.56
  -1  -1  -8 1010.72   54.40
  -1   1  -8  836.46   49.53
  -1   1  -9   16.63    5.76
  -1  -1  -9   30.97   10.32
  -1   1  -9   18.50    8.01
   1   1   9   28.32    8.88
   1  -1   9   16.29    6.82
   1   1   9    9.22    6.61
   1   1   9   17.11    6.59
   1   1   9   15.44    6.38
  -1  -1  -9   19.01    5.94
   1  -1   9   19.31    6.54
  -1  -1  -9   11.81    6.47
  -1  -1 -10 2572.38  105.14
  -1   1 -10 2755.55  105.90
  -1  -1 -10 3373.75  127.26
  -1   1 -10 2745.13  117.82
  -1  -1 -10 2142.08   96.97
   1   1  10 2436.46  109.28
   1   1  10 2247.43  113.88
   1  -1  10 3107.56  116.22
   1   1  10 2331.94  102.14
  -1   1 -10 2865.77  112.81
  -1  -1 -10 3345.53  119.55
  -1  -1 -10 2833.52  113.67
   1  -1  10 2891.11  107.81
   1  -1  10 2615.85  114.27
   1   1  10 2892.67  117.78
   1   1  11  175.70   24.09
   1  -1  11  148.95   22.32
  -1  -1 -11  116.37   15.83
   1   1  11  154.56   21.09
   1   1  11  123.45   22.03
   1  -1  11  194.16   23.84
  -1  -1 -11  157.98   21.73
  -1   1 -11  169.76   19.71
  -1   1 -11  172.78   24.93
  -1  -1 -11  181.12   25.90
  -1   1 -11  169.05   22.42
  -1  -1 -11  223.13   25.90
  -1  -1 -11  168.52   22.41
  -1  -1 -12  152.56   18.60
   1  -1  12  239.38   25.73
   1   1  12  187.62   23.57
   1   1  12  184.49   27.67
  -1   1 -12  211.63   28.65
  -1  -1 -12  252.39   31.50
  -1   1 -12  189.32   21.18
  -1   1 -12  159.69   19.40
   1   1  12  232.38   27.35
  -1  -1 -12  250.44   28.76
  -1   1 -12  181.09   24.38
   1   1  12  273.72   30.77
   1  -1  12  187.94   25.82
   1   1  13   37.14   11.93
   1  -1  13   57.79   12.96
   1   1  13   56.15   12.91
   1   1  13   32.12   12.19
  -1  -1 -13   38.63   12.75
  -1   1 -13   44.02   13.63
  -1   1 -13   28.94    8.58
  -1   1 -13   32.54    8.42
   1   1  13   59.72   14.08
  -1   1 -13   45.04   12.53
  -1  -1 -13   46.33   12.74
   1  -1  13   44.24   12.95
   1   1  13   58.41   14.72
  -1   1 -14  568.98   42.95
   1   1  14  764.71   52.53
   1  -1  14  769.62   50.61
   1  -1  14  810.06   48.52
   1   1  14  768.09   58.66
  -1  -1 -14  709.70   51.16
  -1   1 -14  630.17   48.58
  -1  -1 -14  740.37   57.02
  -1   1 -14  627.45   53.26
   1   1  14  797.39   52.09
   1  -1  14  681.79   52.01
   1   1  14  852.97   55.55
  -1   1 -14  505.65   35.70
  -1   1 -14  616.96   40.64
   1  -1  15   78.32   14.85
   1   1  15   99.07   18.44
   1  -1  15   72.08   12.87
   1   1  15   97.92   16.70
  -1   1 -15   88.56   16.92
  -1   1 -15   47.93   11.71
  -1  -1 -15   67.27   14.92
  -1   1 -15   60.23   11.23
  -1   1 -15   45.33    8.36
   1  -1  16 2710.47   97.47
   1   1  16 2774.58  110.82
   1   1  16 3172.24  107.61
  -1  -1 -16 1810.74   91.58
  -1  -1 -16 2302.84  113.67
  -1   1 -16 2100.62  102.44
  -1  -1 -16 2346.15  104.75
   1   1  16 2746.34  113.47
   1  -1  16 2726.39  102.74
   1   1  17   57.48   10.92
   1   1  17   72.52   10.31
   1  -1  17   50.20   10.95
  -1   1 -17   32.54    9.23
  -1  -1 -17   36.01    7.59
  -1  -1 -17   36.65   10.83
  -1  -1 -17   32.57    9.03
  -1   1 -17   39.90   10.28
   1   1  17   30.28    8.98
   1  -1  17   45.35    8.99
   1   1  18  258.57   18.04
   1  -1  18  270.63   21.20
   1   1  18  209.99   18.37
   1  -1  18  264.59   20.31
  -1  -1 -18  185.10   12.27
  -1  -1 -18  172.65   17.22
  -1   1 -18  174.96   16.09
  -1  -1 -18  188.14   16.05
   1   1  18  268.17   19.38
  -1  -3  17  267.62   19.62
  -1   3  17  283.81   19.57
   1   3 -17  252.50   19.27
   1  -3 -17  233.62   17.64
  -1   3  17  230.87   17.87
  -1   3  16   55.06    9.91
  -1   3  16   59.67   10.52
  -1  -3  16   93.51   13.39
  -1   3  16    0.57    0.90
  -1  -3  16   78.04   11.77
  -1   3  16   78.20   11.95
  -1  -3  16   88.87   12.57
   1  -3 -16   80.36    9.54
   1   3 -16   89.27   12.69
   1   3 -16    1.84    1.46
   1  -3 -16   77.27   12.25
   1  -3 -15  450.19   28.65
  -1   3  15  216.33   25.14
   1   3 -15  285.24   24.46
   1  -3 -15  466.56   28.41
  -1   3  15  262.20   27.29
  -1   3  15  400.52   32.90
  -1  -3  15  484.07   33.92
  -1  -3  15  395.30   31.12
  -1   3  15  575.26   32.84
   1  -3 -15  490.63   36.68
   1   3 -15  462.98   33.50
  -1   3  14  386.09   38.28
   1  -3 -14  806.82   41.91
   1   3 -14  531.29   36.87
   1  -3 -14  835.16   48.49
  -1   3  14  867.18   47.59
  -1  -3  14  764.06   47.46
  -1   3  14  476.40   41.67
  -1  -3  14  722.39   46.48
   1   3 -14  761.49   47.38
   1   3 -14  653.15   38.91
   1  -3 -14  730.55   41.06
  -1   3  14  324.54   36.07
   1   3 -13  123.49   15.63
  -1   3  13  144.11   19.45
  -1  -3  13  136.25   20.42
  -1   3  13   95.88   19.09
  -1   3  13  135.05   19.56
  -1  -3  13  131.97   19.89
   1  -3 -13  121.77   16.68
  -1   3  13   76.57   17.17
  -1   3  13   89.07   15.62
   1   3 -13   90.37   14.73
   1  -3 -13  141.68   17.32
   1  -3 -13  157.22   21.82
   1   3 -13  130.90   17.21
  -1   3  13  112.94   20.39
  -1  -3  13  106.95   19.28
   1   3 -12 2526.86  103.79
   1   3 -12 2772.36  101.39
  -1   3  12 2803.26  112.81
   1   3 -12 1897.44  100.59
  -1   3  12 2008.49  104.21
  -1  -3  12 2794.80  114.78
  -1  -3  12 2645.18  113.56
   1  -3 -12 2772.34  106.54
  -1   3  12 1804.23  109.81
  -1   3  12 2836.22  106.90
   1  -3 -12 3318.30  121.83
   1  -3 -12 3046.90  105.10
   1   3 -12 2096.65   97.28
  -1  -3  12 2564.53  116.05
  -1   3  12 1999.88  109.72
   1  -3 -11  730.44   47.25
  -1   3  11  868.47   54.26
   1   3 -11  491.56   40.82
   1   3 -11  533.16   38.98
   1  -3 -11  812.21   44.83
   1   3 -11  710.03   46.11
  -1   3  11  569.37   46.99
  -1  -3  11  762.12   51.98
  -1  -3  11  759.61   52.54
   1  -3 -11  730.96   46.69
  -1   3  11  731.64   56.03
   1   3 -11  843.15   41.67
  -1   3  11  632.50   43.69
   1  -3 -11  859.35   55.45
   1  -3 -11  827.77   55.78
   1  -3 -11  713.27   42.31
  -1   3  11  504.59   47.78
  -1  -3  11  725.90   53.71
  -1  -3  11  851.62   48.01
  -1   3  11  431.07   43.69
   1   3 -10  113.23   15.19
   1   3 -10  122.99   18.09
  -1   3  10  155.32   22.06
   1   3 -10   86.44   15.22
   1  -3 -10  184.31   20.70
  -1   3  10  114.94   19.84
  -1   3  10   98.35   18.80
  -1  -3  10  152.02   22.37
  -1  -3  10  153.13   22.29
  -1  -3  10  149.72   19.00
  -1  -3  10  148.33   23.37
  -1   3  10  128.68   22.13
  -1   3  10   96.93   16.18
   1   3 -10  172.39   17.23
   1  -3 -10  136.93   17.18
   1  -3 -10  160.39   22.78
   1  -3 -10  175.85   24.59
  -1   3  10  117.31   20.95
   1  -3 -10  167.76   21.24
   1   3  -9  595.98   44.09
   1   3  -9  723.52   38.60
  -1   3   9  640.75   46.23
   1   3  -9  435.13   35.37
   1  -3  -9  693.79   41.00
  -1  -3   9  676.20   48.41
  -1   3   9  525.26   43.45
  -1  -3   9  647.80   46.26
  -1  -3   9  614.46   40.49
  -1  -3   9  612.67   47.91
  -1   3   9  576.23   47.16
   1   3  -9  636.38   35.84
   1  -3  -9  597.21   34.28
  -1   3   9  469.68   38.04
   1  -3  -9  647.49   48.60
   1  -3  -9  532.25   36.54
  -1   3   9  462.29   41.71
   1  -3  -9  565.98   41.05
   1   3  -8 1825.18   86.67
   1   3  -8 2217.79   77.09
  -1   3   8 1836.60   87.55
   1  -3  -8 2133.75   79.85
   1   3  -8 1250.39   70.86
  -1  -3   8 1822.64   88.26
  -1  -3   8 1890.77   87.23
  -1   3   8 1615.16   84.93
  -1  -3   8 1794.64   90.00
  -1  -3   8 1869.23   80.89
   1  -3  -8 1856.27   84.58
  -1   3   8 1792.96   89.80
   1   3  -8 2078.80   75.94
   1  -3  -8 1754.78   77.75
   1  -3  -8 1919.40   92.80
  -1   3   8 1333.68   79.89
   1  -3  -8 1788.43   82.57
  -1  -3   7  132.87   18.84
  -1  -3   7  142.78   20.54
  -1   3   7  164.19   21.62
  -1  -3   7  141.80   17.75
  -1  -3   7  150.35   21.53
   1  -3  -7  142.59   19.25
   1  -3  -7  203.63   23.46
   1   3  -7  164.95   16.56
   1  -3  -7  144.54   17.81
   1   3  -7  171.64   15.68
   1   3  -7  163.94   21.02
   1  -3  -7  169.67   21.12
   1  -3  -7  166.75   16.62
   1   3  -7   99.97   14.12
  -1   3   7  129.92   18.59
   1  -3  -7  150.02   16.02
  -1   3   7  137.83   20.04
  -1   3   6 2890.69  120.64
   1   3  -6 2104.46  102.14
   1  -3  -6 3669.92  109.50
   1  -3  -6 3604.35  124.15
   1   3  -6 3790.43  109.10
   1  -3  -6 2977.90  120.46
   1  -3  -6 3479.04  125.36
  -1   3   6 2793.33  107.78
   1   3  -6 3554.26  111.66
   1  -3  -6 3135.64  115.81
  -1   3   6 2440.88  107.98
   1   3  -6 3962.17  111.92
  -1  -3   6 3123.13  120.08
  -1   3   6 3103.84  122.47
  -1  -3   6 3020.04  122.93
  -1   3   6 3043.86  121.96
  -1   3   6 2527.31  113.38
   1  -3  -6 3202.87  111.98
  -1   3   6 2851.96  114.46
  -1  -3   6 2922.26  113.64
  -1  -3   6 3063.09  125.19
  -1   3   5  755.51   48.31
   1   3  -5  546.76   33.96
   1  -3  -5  974.14   38.68
   1  -3  -5  919.88   48.38
  -1  -3   5  809.26   46.70
  -1  -3   5  761.29   48.14
   1   3  -5 1012.95   41.58
   1  -3  -5  816.90   48.45
  -1   3   5  900.40   50.95
   1  -3  -5  748.50   46.92
   1   3  -5  954.45   43.05
  -1   3   5  826.93   41.68
  -1   3   5  616.77   39.26
   1   3  -5 1009.45   42.80
   1  -3  -5  697.26   41.11
  -1   3   5  739.34   43.23
  -1  -3   5  804.45   50.69
   1   3  -5  960.95   36.68
  -1  -3   5  738.64   42.50
  -1   3   5  772.86   44.15
   1   3  -4    5.69    4.92
   1  -3  -4    1.75    5.39
  -1   3   4   19.26    7.40
   1   3  -4    7.00    3.18
   1  -3  -4    5.92    4.67
  -1  -3   4   10.15    6.41
  -1  -3   4   -0.83    6.06
  -1   3   4    8.58    5.81
   1   3  -4    6.49    3.61
  -1   3   4    7.11    5.47
  -1   3   4   10.61    4.61
   1   3  -4    6.93    3.77
  -1   3   4    1.23    2.58
  -1   3   4    8.35    5.65
  -1  -3   4   12.71    5.34
  -1   3   4    2.89    3.43
   1  -3  -4    7.48    5.82
   1   3  -4    8.09    3.31
  -1   3   4   11.00    4.93
   1   3  -3  656.07   38.90
   1  -3  -3  522.10   36.92
   1  -3  -3  532.44   38.07
  -1   3   3  534.03   37.33
   1   3  -3  340.41   20.06
  -1   3   3  693.76   38.95
  -1  -3   3  461.34   34.44
   1   3  -3  675.12   32.35
  -1   3   3  703.15   38.97
  -1  -3   3  498.01   37.26
   1   3  -3  670.52   33.20
  -1   3   3  544.46   32.50
   1   3  -3  743.26   34.28
   1  -3  -3  638.86   34.62
  -1   3   3  418.62   22.84
  -1   3   3  693.80   38.80
   1   3  -3  667.67   25.97
  -1   3   3  519.12   29.07
  -1  -3   3  543.47   38.67
   1  -3  -3  501.18   34.73
  -1   3   3  615.22   35.14
   1   3  -3  636.30   30.11
   1   3  -2 3840.78  120.74
   1  -3  -2 3995.89  145.51
   1  -3  -2 4409.52  150.55
   1   3  -2 4203.93  144.92
   1  -3  -2 4180.65  134.97
  -1   3   2 4245.90  139.97
   1   3  -2 4559.04  135.19
  -1  -3   2 3820.28  146.52
   1   3  -2 4265.20  134.67
  -1   3   2 3691.64  134.64
  -1   3   2 4491.51  141.57
   1   3  -2 4139.93  128.38
  -1   3   2 3634.90  126.33
   1  -3  -2 3643.12  140.62
  -1  -3   2 4068.56  149.31
   1  -3  -1  205.58   22.02
   1   3  -1  194.90   21.33
  -1  -3   1  190.68   22.24
  -1  -3   1  171.30   21.43
  -1   3   1  181.50   16.95
   1   3  -1  194.87   16.36
   1   3  -1  213.99   17.56
   1  -3  -1  179.62   19.68
  -1   3   1  179.56   17.06
  -1  -3   1  171.93   18.38
   1  -3  -1  170.85   14.67
  -1   3   1  216.66   18.73
   1   3  -1  178.99   15.29
  -1   3   1  162.44   10.89
  -1   3   1  167.52   19.21
  -1   3   0 2842.04  112.57
   1   3   0 2702.14  107.45
   1  -3   0 2562.59   92.91
   1  -3   0 3339.72  114.45
  -1  -3   0 3122.46  110.44
  -1   3   0 2997.90  102.32
   1   3   0 3110.06  101.92
  -1  -3   0 3405.90  119.15
  -1   3   0 2569.56   99.81
   1   3   0 2653.14   98.09
   1   3   0 3183.78  102.87
   1   3   0 2579.04   99.89
  -1   3   0 3130.25  100.54
  -1   3  -1 1517.71   55.46
   1  -3   1 1193.22   47.79
  -1  -3  -1 1494.96   71.52
  -1  -3  -1 1649.08   73.27
  -1   3  -1 1439.22   57.62
   1   3   1 1387.39   65.50
   1   3   1 1443.30   58.48
  -1  -3  -1 1580.91   71.92
  -1   3  -1 1294.99   57.48
   1   3   1 1508.15   59.33
   1   3   1 1316.50   60.52
   1  -3   1 1798.20   75.58
   1  -3   1 1461.35   64.43
  -1   3  -1 1569.98   59.32
   1   3   1 1283.69   59.62
   1   3   2  269.46   20.41
  -1  -3  -2  259.54   25.19
   1   3   2  253.46   22.67
  -1   3  -2  280.09   21.05
   1   3   2  269.43   20.32
   1   3   2  256.59   22.59
   1   3   2  274.35   23.89
  -1   3  -2  272.78   25.10
  -1   3  -2  276.94   19.60
   1  -3   2  270.51   25.54
  -1  -3  -2  289.91   23.25
  -1  -3  -2  225.39   24.56
  -1   3  -2  294.36   18.34
  -1  -3  -2  267.01   26.85
  -1  -3  -3  606.89   42.56
   1   3   3  725.94   36.14
  -1  -3  -3  619.55   40.83
   1   3   3  688.45   35.59
   1   3   3  646.56   37.67
   1  -3   3  656.93   41.58
  -1  -3  -3  655.57   37.76
  -1   3  -3  747.89   43.82
   1   3   3  641.89   39.98
  -1   3  -4 5101.51  126.24
  -1   3  -4 4119.82  122.92
   1   3   4 3494.03  118.00
  -1  -3  -4 3471.07  130.27
   1   3   4 3635.02  118.99
   1   3   4 3374.35  127.00
   1   3   4 3186.73  121.85
   1  -3   4 3786.68  128.79
  -1  -3  -4 3423.22  121.68
   1  -3   4 3312.38  127.62
   1   3   4 3962.21  130.47
  -1   3  -4 2096.99  110.21
  -1   3  -5   36.02    8.32
   1   3   5   55.47   10.87
  -1  -3  -5   53.00    9.41
   1   3   5   59.07    9.46
  -1  -3  -5   46.39   11.58
  -1  -3  -5   43.55   10.16
  -1  -3  -5   37.84   10.75
  -1   3  -5   66.72    9.62
  -1   3  -5   58.95    9.64
   1   3   5   47.71    8.73
  -1  -3  -5   47.96    8.94
   1   3   5   43.87   10.63
   1  -3   5   38.40    8.96
   1   3   5   34.44    9.80
  -1  -3  -5   47.89    7.73
   1  -3   5   49.12   10.78
   1   3   5   47.75   10.01
   1  -3   5   41.11   10.52
   1  -3   5   48.62    7.83
   1   3   6 2287.03   96.91
   1   3   6 2357.78   88.14
  -1  -3  -6 2372.46   85.81
  -1   3  -6 1452.62   78.42
   1   3   6 1873.82   88.47
   1   3   6 1782.41   89.18
   1  -3   6 2107.33   87.40
  -1  -3  -6 2284.89   96.84
  -1  -3  -6 1924.28   92.26
  -1  -3  -6 1884.84   84.63
  -1   3  -6 2716.48   83.44
  -1   3  -6 2436.74   83.68
  -1  -3  -6 1961.57   78.62
  -1   3  -6 2483.95   81.67
  -1  -3  -6 2116.91   73.00
   1   3   6 1790.27   89.19
   1  -3   6 1785.93   74.98
   1   3   6 1923.41   85.55
   1  -3   6 2088.20   90.76
  -1   3  -7 2240.51   79.77
   1   3   7 1991.29   87.95
  -1  -3  -7 1953.22   77.10
  -1   3  -7 1273.69   70.67
   1   3   7 1361.68   78.09
   1  -3   7 1867.17   77.01
   1   3   7 1573.93   79.34
   1  -3   7 1769.11   81.42
   1   3   7 1536.48   74.92
   1  -3   7 1614.79   66.65
  -1  -3  -7 1559.11   73.71
   1   3   7 1450.25   79.54
  -1  -3  -7 1697.26   84.22
  -1   3  -7 1987.59   72.46
  -1   3  -7 1929.41   68.66
  -1  -3  -7 1639.47   67.41
   1   3   7 1403.76   78.33
   1   3   7 1227.97   77.56
  -1  -3  -7 1747.31   75.20
  -1   3  -8  518.93   34.57
   1   3   8  458.54   38.30
  -1   3  -8  285.91   28.98
  -1  -3  -8  447.92   33.15
   1  -3   8  439.06   33.01
   1   3   8  340.05   34.71
   1  -3   8  416.18   35.47
   1   3   8  308.48   28.80
   1  -3   8  391.14   26.73
   1   3   8  307.65   32.96
  -1  -3  -8  410.39   37.14
  -1   3  -8  441.26   28.59
  -1  -3  -8  411.19   26.87
  -1  -3  -8  412.50   39.32
   1   3   8  345.01   34.46
   1   3   8  273.55   32.99
  -1  -3  -8  394.44   30.97
  -1   3  -9  229.01   23.00
   1   3   9  195.54   25.27
  -1   3  -9  121.72   19.16
  -1  -3  -9  194.11   22.07
   1  -3   9  179.20   21.35
   1   3   9  116.50   20.34
   1  -3   9  162.70   22.12
   1   3   9  122.56   21.10
  -1   3  -9  183.23   17.89
  -1  -3  -9  158.53   24.25
  -1  -3  -9  151.33   15.75
   1   3   9   87.36   19.06
   1   3   9  131.50   21.50
  -1  -3  -9  141.90   18.43
  -1   3 -10 2553.03   91.69
   1   3  10 2493.70  100.70
  -1  -3 -10 2290.20   91.84
  -1   3 -10 1432.20   81.58
   1  -3  10 1931.93   85.04
   1   3  10 1441.59   84.99
  -1  -3 -10 1824.64   79.67
   1   3  10 1482.88   87.71
   1   3  10 1399.30   83.49
   1   3  10 1102.58   80.91
  -1  -3 -10 2176.47   99.56
  -1  -3 -10 1992.70   83.67
  -1   3 -10 1522.92   78.40
   1  -3  10 1822.94   88.65
  -1  -3 -11  197.98   29.11
  -1   3 -11  198.34   22.30
  -1   3 -11  175.91   20.81
   1   3  11  201.28   25.71
  -1   3 -11  131.68   20.14
   1  -3  11  144.62   19.65
   1   3  11  109.96   19.17
  -1  -3 -11  136.17   17.45
   1   3  11   99.69   19.53
   1   3  11   86.38   18.85
  -1  -3 -11  130.88   22.12
  -1  -3 -11  205.01   22.53
  -1   3 -11  122.28   18.07
   1  -3  11  151.18   22.02
  -1   3 -12  430.73   33.03
  -1  -3 -12  552.73   48.62
   1   3  12  624.44   44.68
  -1   3 -12  359.72   35.01
   1   3  12  256.26   31.25
   1   3  12  436.29   36.97
   1  -3  12  511.84   37.85
  -1  -3 -12  414.24   31.09
   1   3  12  416.00   39.41
   1   3  12  386.97   39.55
  -1  -3 -12  510.58   36.65
  -1   3 -12  350.58   32.21
   1  -3  12  478.83   39.49
  -1   3 -13  530.24   41.41
   1   3  13  610.68   41.19
   1  -3  13  548.86   39.65
   1  -3  13  508.63   37.85
   1   3  13  428.43   38.95
  -1  -3 -13  470.43   32.59
   1   3  13  549.10   42.84
   1   3  13  450.41   41.37
  -1  -3 -13  620.88   40.28
  -1   3 -13  409.81   34.96
  -1  -3 -13  578.76   43.58
   1   3  13  708.55   45.67
  -1  -3 -13  625.72   50.85
  -1   3 -13  508.49   34.89
   1  -3  13  532.50   41.30
  -1  -3 -14  743.19   48.38
  -1   3 -14  669.22   46.74
  -1  -3 -14  879.28   47.28
  -1   3 -14  581.92   42.13
   1   3  14  737.46   48.68
   1  -3  14  846.87   47.84
   1  -3  14  819.54   46.95
   1   3  14 1017.38   49.55
  -1  -3 -14  879.98   57.95
  -1   3 -14  716.05   41.02
   1   3  15   25.79    7.68
  -1  -3 -15   21.08    6.14
  -1   3 -15   19.59    5.70
  -1   3 -15   30.90    8.59
   1  -3  15   30.85    8.10
   1  -3  15   33.40    8.25
  -1  -3 -15   23.76    8.30
  -1   3 -15   32.00    6.96
   1   3  15   35.03    9.19
   1   3  16  980.71   49.32
   1   3  16 1020.84   49.52
  -1   3 -16 1049.00   52.02
  -1  -3 -16  991.32   51.04
  -1  -3 -16 1181.92   51.97
   1  -3  16 1205.04   50.10
   1   3  16 1321.97   53.80
   1  -3  16 1222.11   50.90
  -1  -3 -16  903.99   41.06
  -1  -3 -17   88.07   10.17
   1  -3  17  101.24   11.66
   1   3  17  108.09   10.87
   1   3  17  129.55   11.78
   1   5 -14  573.87   29.28
   1   5 -14  619.73   33.38
   1  -5 -14  665.35   30.73
  -1   5  14  671.65   30.11
  -1  -5  14  595.75   29.79
  -1  -5  14  595.20   30.16
  -1   5  13    7.23    3.59
   1  -5 -13   16.46    4.15
  -1  -5  13    9.38    4.23
  -1  -5  13   12.13    5.11
  -1   5  13   13.59    4.03
   1  -5 -13   19.78    5.55
   1   5 -13    8.31    5.05
   1   5 -13   11.68    4.85
   1   5 -13   11.84    3.51
   1   5 -13   11.56    3.81
  -1   5  13   15.45    4.85
  -1  -5  12  953.78   49.16
   1  -5 -12 1145.17   47.16
  -1  -5  12 1034.40   51.61
  -1   5  12 1141.46   49.59
   1  -5 -12 1240.26   54.19
   1   5 -12 1056.34   52.11
   1   5 -12 1021.57   48.35
   1   5 -12 1032.75   48.35
  -1   5  12  869.34   48.47
  -1   5  12  729.72   45.11
  -1  -5  11  525.82   35.65
   1  -5 -11  605.94   34.30
  -1   5  11  478.42   33.33
   1  -5 -11  659.30   39.98
   1  -5 -11  674.53   40.74
  -1  -5  11  493.56   35.57
   1   5 -11  558.12   37.91
  -1   5  11  440.04   33.06
  -1  -5  11  581.90   34.11
  -1   5  11  418.82   33.75
   1   5 -11  526.11   34.61
  -1  -5  10  177.55   20.76
  -1  -5  10  192.79   22.15
  -1   5  10  143.50   18.59
   1  -5 -10  238.78   24.76
   1  -5 -10  194.31   16.55
   1   5 -10  192.99   22.82
   1   5 -10  203.84   21.77
  -1  -5  10  191.40   19.51
  -1   5  10  138.38   18.29
  -1   5  10  145.45   19.70
   1  -5  -9 1400.21   52.16
   1   5  -9 1265.54   63.67
   1   5  -9 1076.90   60.53
  -1  -5   9 1233.76   58.61
  -1   5   9  970.79   56.99
  -1  -5   9 1083.65   60.29
  -1  -5   9 1192.20   63.71
   1   5  -9 1240.37   57.58
  -1   5   9 1004.09   58.73
   1  -5  -9 1579.63   72.66
   1  -5  -9 1304.16   54.17
   1   5  -9 1167.46   53.04
   1  -5  -9 1366.27   60.50
  -1   5   9  828.96   52.46
  -1  -5   9 1155.78   58.88
  -1   5   9  790.26   53.67
  -1  -5   9 1322.63   68.17
   1  -5  -8 1095.59   47.48
   1   5  -8  874.18   53.34
   1   5  -8  826.08   52.49
  -1   5   8  690.34   47.41
  -1  -5   8  835.99   48.06
  -1  -5   8  917.61   54.06
  -1  -5   8  957.52   56.06
   1  -5  -8 1086.87   56.02
  -1   5   8  850.30   52.95
   1   5  -8  982.78   50.56
   1  -5  -8 1010.77   48.15
   1  -5  -8 1200.64   64.52
   1   5  -8  915.14   46.68
   1  -5  -8  994.60   51.45
  -1   5   8  656.94   45.45
  -1  -5   8 1045.80   60.21
  -1  -5   8  836.55   49.41
   1  -5  -7    0.62    2.60
   1   5  -7   14.74    7.32
   1   5  -7    1.93    4.33
  -1   5   7    5.85    4.59
  -1   5   7    5.66    5.68
   1  -5  -7   15.13    6.78
  -1  -5   7    3.92    5.16
   1  -5  -7   31.40    9.12
  -1  -5   7    6.59    6.16
  -1   5   7    7.87    5.41
   1   5  -7    2.46    2.76
  -1   5   7    6.31    4.31
   1   5  -7    9.15    4.84
   1  -5  -7   17.99    6.21
   1   5  -7    4.06    3.22
  -1  -5   7    2.27    3.60
  -1   5   7    3.20    4.79
  -1   5   7   18.00    6.49
  -1  -5   7    4.90    4.50
  -1  -5   7    6.52    6.22
   1  -5  -6 1027.59   49.24
   1   5  -6  821.18   52.80
  -1   5   6  816.93   48.70
  -1  -5   6  952.21   50.21
  -1   5   6  957.54   57.97
  -1  -5   6  902.51   53.85
   1   5  -6  975.30   48.50
  -1   5   6  903.17   49.98
   1  -5  -6 1083.55   52.30
  -1   5   6  764.63   48.35
  -1  -5   6  908.95   51.14
   1  -5  -6 1241.43   60.82
   1  -5  -6 1087.53   57.46
  -1  -5   6  967.25   56.23
  -1   5   6 1022.74   60.53
  -1  -5   5  451.34   27.97
  -1   5   5  528.95   36.85
  -1   5   5  496.43   38.74
  -1  -5   5  511.43   35.41
   1  -5  -5  649.20   42.84
  -1  -5   5  506.26   37.60
   1  -5  -5  581.76   40.32
  -1   5   5  569.84   41.93
  -1  -5   5  567.57   39.65
  -1   5   5  458.24   33.81
   1   5  -5  521.65   35.46
   1   5  -5  570.09   34.60
  -1   5   5  441.25   34.59
   1  -5  -5  554.68   35.93
   1  -5  -5  558.83   34.45
  -1   5   5  380.32   31.18
  -1  -5   4  132.48   14.18
   1  -5  -4  156.65   20.85
   1   5  -4  141.07   19.38
  -1   5   4  129.46   17.83
  -1   5   4  122.82   18.05
   1  -5  -4  151.56   19.25
  -1  -5   4  134.22   17.05
  -1  -5   4  136.57   18.39
  -1  -5   4  132.99   18.29
   1  -5  -4  182.34   21.78
   1  -5  -4  176.81   21.60
  -1   5   4  169.62   19.34
   1   5  -4  163.91   18.90
  -1   5   4  128.86   17.81
  -1   5   4  142.07   16.86
  -1   5   4  155.75   14.94
  -1  -5   3 1091.15   52.62
   1  -5  -3 1474.27   70.96
   1   5  -3 1170.47   63.34
  -1   5   3 1132.88   61.96
  -1   5   3 1264.28   63.35
   1  -5  -3 1491.63   67.76
   1   5  -3 1211.71   57.29
  -1  -5   3 1156.61   58.77
  -1  -5   3 1268.59   63.55
  -1  -5   3 1304.06   63.27
  -1   5   3 1225.32   60.79
   1   5  -3 1283.42   60.59
  -1   5   3 1122.10   60.70
  -1   5   3 1079.75   55.10
   1   5  -3 1251.78   57.11
  -1   5   3 1388.20   55.95
  -1  -5   2  965.00   48.14
  -1  -5   2 1103.30   57.93
   1  -5  -2 1229.86   62.29
   1  -5  -2 1254.37   63.71
   1   5  -2  990.09   56.61
  -1   5   2  932.83   56.03
  -1   5   2 1030.84   54.42
   1   5  -2 1061.21   53.12
  -1  -5   2 1004.78   53.24
   1  -5  -2 1276.41   60.97
  -1  -5   2 1063.69   56.50
  -1  -5   2 1121.37   56.54
   1   5  -2 1014.97   52.46
  -1   5   2 1083.20   55.77
  -1   5   2  989.83   55.56
  -1   5   2  880.41   47.20
   1   5  -2 1024.64   49.66
  -1   5   2 1069.32   49.06
  -1  -5   1    1.78    3.13
   1  -5  -1    6.06    4.96
  -1  -5   1    4.38    5.02
   1  -5  -1    5.50    5.04
  -1   5   1   13.38    6.95
   1   5  -1    2.51    3.76
   1  -5  -1    4.03    4.43
   1   5  -1   20.16    6.81
  -1  -5   1    3.30    4.72
  -1   5   1   21.44    7.19
   1   5  -1    1.36    2.85
  -1   5   1    8.11    3.90
  -1   5   1   10.04    5.48
  -1   5   1   11.07    4.91
   1   5  -1    5.60    3.88
   1   5   0  975.12   50.04
   1  -5   0 1014.55   52.87
   1   5   0 1024.51   54.64
  -1  -5   0 1084.63   52.85
  -1   5   0  935.29   46.94
   1   5   0 1060.89   47.47
  -1   5   0 1091.18   54.62
   1   5   0  922.19   48.44
  -1   5   0  948.29   53.28
  -1   5   0  956.47   47.82
  -1  -5   0 1023.51   56.76
   1  -5   0 1037.18   55.02
   1   5   0 1068.82   58.57
   1  -5   0 1027.98   56.48
   1   5   0  940.69   52.17
  -1   5  -1 1217.07   58.02
   1   5   1 1448.27   58.21
  -1  -5  -1 1363.35   61.10
   1   5   1 1385.04   65.45
  -1  -5  -1 1502.21   66.25
   1  -5   1 1330.09   61.89
   1   5   1 1204.33   58.33
  -1   5  -1 1357.93   62.12
   1  -5   1 1336.60   65.09
   1   5   1 1516.73   71.80
  -1  -5  -1 1640.39   74.15
  -1   5  -1 1265.99   65.44
   1   5   1 1326.76   64.07
   1  -5   1 1379.59   63.78
   1   5   1 1304.70   66.38
  -1  -5  -1 1627.28   68.06
   1   5   2   91.94   11.33
  -1   5  -2   98.10   12.93
   1  -5   2   81.88   13.26
   1   5   2   83.56   14.73
  -1  -5  -2   98.00   16.75
   1   5   2   90.71   14.90
  -1  -5  -2   93.94   14.03
   1  -5   2   63.86   11.22
   1   5   2  103.86   14.50
   1  -5   2   82.71   11.95
  -1   5  -2   90.04   12.43
  -1   5  -2   84.66   13.17
   1   5   2   86.53   13.19
   1   5   2   92.59   14.87
  -1  -5  -2  109.37   15.06
   1   5   2   64.47   12.91
  -1   5  -3  898.45   48.67
   1   5   3  883.40   54.39
  -1  -5  -3 1187.88   57.20
   1  -5   3 1034.07   52.33
   1   5   3  999.10   55.48
   1  -5   3  933.88   48.72
  -1   5  -3 1073.28   53.09
   1   5   3  918.56   50.41
  -1   5  -3 1067.70   54.37
  -1  -5  -3 1066.68   51.74
   1   5   3 1079.58   55.50
   1   5   3  907.49   54.42
  -1  -5  -3 1158.95   55.20
  -1   5  -4 1420.33   68.81
  -1  -5  -4 1800.90   72.59
  -1   5  -4 1775.69   80.75
   1   5   4 1802.40   75.31
  -1  -5  -4 2035.94   80.98
   1  -5   4 1517.85   69.59
   1   5   4 1591.23   77.92
  -1  -5  -4 1883.10   79.77
   1  -5   4 1527.96   70.98
  -1   5  -4 1785.38   73.45
   1   5   4 1391.21   67.84
  -1   5  -4 1685.14   73.55
  -1  -5  -4 1842.24   71.32
   1   5   4 1454.94   76.29
   1   5   4 1443.47   75.71
  -1  -5  -4 1874.03   75.35
   1  -5   4 1403.28   69.50
   1   5   4 1446.11   74.40
  -1  -5  -5   19.65    6.29
   1   5   5   13.87    5.58
  -1   5  -5   27.32    8.91
   1   5   5   11.13    6.03
  -1  -5  -5   30.36    9.25
  -1  -5  -5   23.22    8.34
   1  -5   5   12.69    6.06
  -1  -5  -5   26.48    8.48
   1   5   5   13.09    7.51
   1  -5   5   20.22    7.11
  -1   5  -5   18.79    6.37
   1   5   5    9.87    4.70
  -1   5  -5   27.68    7.51
   1   5   5   19.65    6.17
  -1  -5  -5   25.79    6.19
   1   5   5   14.69    6.61
   1   5   5   19.89    7.33
   1  -5   5   16.00    6.30
  -1  -5  -6  251.89   22.64
  -1  -5  -6  273.43   22.77
  -1   5  -6  247.41   26.14
   1   5   6  284.54   24.40
  -1   5  -6  208.44   24.07
   1   5   6  211.60   25.07
   1  -5   6  188.82   21.46
   1   5   6  232.93   26.36
  -1  -5  -6  227.84   23.60
   1  -5   6  202.24   21.84
  -1  -5  -6  336.50   30.72
   1   5   6  198.21   19.26
  -1   5  -6  273.69   23.21
  -1   5  -6  197.12   20.25
   1   5   6  256.65   21.46
   1   5   6  219.92   25.14
   1  -5   6  197.43   21.47
   1  -5   6  235.92   25.83
   1   5   6  177.63   21.73
  -1   5  -7  727.33   49.75
   1   5   7  784.08   52.46
   1  -5   7  778.76   48.34
  -1  -5  -7 1105.79   59.96
   1   5   7  818.40   54.11
   1  -5   7  797.37   48.95
  -1  -5  -7  926.63   51.13
  -1   5  -7 1079.09   51.25
   1   5   7  845.19   42.82
  -1   5  -7  928.93   47.80
  -1   5  -7 1005.91   46.86
  -1  -5  -7 1061.44   48.17
  -1   5  -7  972.71   55.27
  -1  -5  -7  869.25   47.41
   1  -5   7  819.52   48.34
   1  -5   7  871.86   54.42
   1   5   8  123.02   17.10
   1  -5   8  133.04   17.83
   1   5   8  138.40   20.24
  -1  -5  -8  185.35   22.92
   1  -5   8  132.01   17.84
  -1  -5  -8  176.81   18.33
  -1  -5  -8  192.36   24.63
  -1   5  -8  159.05   17.21
  -1  -5  -8  166.17   15.99
  -1   5  -8  187.76   17.92
  -1   5  -8  171.40   20.71
  -1   5  -8  142.38   19.53
   1  -5   8  152.94   18.49
   1  -5   8  151.74   20.44
   1  -5   9  318.75   26.82
   1  -5   9  308.92   29.21
   1  -5   9  279.53   26.17
   1   5   9  282.16   28.89
  -1  -5  -9  302.89   24.12
  -1  -5  -9  359.81   33.07
  -1   5  -9  255.28   26.04
  -1   5  -9  348.71   28.76
  -1   5  -9  358.55   24.88
  -1  -5  -9  321.36   21.09
   1   5   9  244.44   25.98
   1   5   9  198.89   22.47
   1   5  10  797.27   49.87
   1   5  10  655.80   45.30
   1   5  10  830.92   52.39
   1  -5  10  963.91   51.77
   1   5  10  930.12   49.13
  -1  -5 -10 1172.68   60.28
  -1  -5 -10 1060.09   48.08
  -1   5 -10 1103.28   51.99
  -1   5 -10 1081.88   58.91
  -1   5 -10 1106.01   47.25
   1   5  11  344.93   27.72
   1  -5  11  372.29   27.94
   1   5  11  423.09   27.63
  -1  -5 -11  401.04   31.25
  -1  -5 -11  402.98   24.36
  -1   5 -11  397.24   31.62
  -1   5 -11  388.68   25.53
   1   5  12  157.31   15.54
   1   5  12  109.78   13.31
   1   5  12  174.29   14.68
  -1  -5 -12  168.46   17.22
   1  -5  12  133.50   14.24
  -1   5 -12  161.79   17.62
  -1   5 -12  137.83   16.57
  -1   5 -12  176.97   17.73
   1  -5  12  147.42   15.19
   1  -5  13  485.01   28.09
   1  -5  13  491.33   28.00
  -1   5 -13  590.73   31.21
  -1  -5 -13  547.36   27.66
   1   5  13  542.49   28.75
   1   5  13  416.85   26.53
  -1   5 -13  447.29   29.46
   1   5  14  182.08   13.89
   1   5  14  229.75   14.70
  -1  -5 -14  197.63   13.36
  -1   5 -14  180.29   13.86
  -1   5 -14  170.16   14.75
   1  -5  14  192.37   14.16
  -1   7   9  988.81   40.62
   1  -7  -9 1065.38   39.08
   1   7  -9 1137.70   43.08
  -1  -7   9 1031.29   39.34
  -1  -7   9 1028.80   39.13
   1  -7  -8  145.04   10.45
   1   7  -8  124.12    9.69
  -1  -7   8  145.97   10.97
  -1  -7   8  150.41   11.07
  -1   7   8  138.77   11.29
  -1   7   7   33.67    6.00
  -1   7   7   28.53    6.05
   1  -7  -7   29.88    5.44
   1   7  -7   31.84    5.54
   1   7  -7   30.40    5.64
  -1  -7   7   40.58    6.44
  -1  -7   7   22.62    4.96
   1  -7  -7   24.00    3.83
   1   7  -7   19.37    4.69
   1   7  -6  330.33   20.76
   1  -7  -6  385.57   20.98
   1   7  -6  351.00   21.20
  -1   7   6  343.38   23.44
   1  -7  -6  395.14   22.46
   1   7  -6  332.51   22.32
   1   7  -6  335.85   22.11
  -1  -7   6  354.87   21.65
  -1  -7   6  336.05   21.32
  -1   7   6  347.51   22.04
   1  -7  -6  336.74   18.27
  -1   7   5  617.86   32.86
   1   7  -5  635.09   32.95
   1  -7  -5  770.17   33.88
   1   7  -5  716.14   34.48
  -1   7   5  785.34   35.36
  -1   7   5  730.84   37.86
   1   7  -5  753.68   37.32
   1   7  -5  728.77   36.70
  -1  -7   5  716.72   34.75
  -1  -7   5  746.66   35.34
  -1   7   5  737.20   29.43
  -1  -7   5  636.26   27.44
   1  -7  -5  767.49   32.13
   1   7  -4   19.19    4.92
   1  -7  -4   23.71    5.29
   1   7  -4   20.77    5.21
  -1   7   4   20.91    5.63
  -1   7   4   20.82    6.02
   1   7  -4   24.92    6.11
   1   7  -4   18.63    5.44
  -1  -7   4   30.31    6.34
  -1  -7   4   20.82    5.16
   1  -7  -4   23.17    4.84
  -1  -7   4   22.01    4.04
  -1   7   4   17.27    3.80
   1   7  -3  822.52   39.10
   1  -7  -3  924.25   40.15
   1   7  -3  884.67   41.84
  -1   7   3  917.84   43.00
  -1   7   3  847.16   43.01
   1  -7  -3  854.35   35.26
  -1  -7   3  859.76   40.55
  -1  -7   3  849.12   40.76
  -1  -7   3  837.19   35.67
  -1   7   3  866.89   35.75
   1  -7  -2  190.09   15.82
   1   7  -2  181.34   16.55
  -1   7   2  197.36   17.87
  -1   7   2  199.20   18.07
   1  -7  -2  175.66   13.30
   1   7  -2  174.05   16.82
  -1   7   2  219.91   17.81
  -1  -7   2  185.83   16.45
  -1  -7   2  171.87   15.79
  -1  -7   2  181.08   13.94
   1  -7  -2  186.77   15.01
  -1   7   2  203.89   14.24
   1  -7  -1    4.85    3.06
  -1   7   1    7.02    3.83
  -1   7   1    5.73    2.75
   1   7  -1    8.73    4.24
   1   7  -1    5.46    3.13
  -1   7   1    6.82    3.44
   1  -7  -1   10.85    4.11
  -1  -7   1    4.07    2.63
   1  -7  -1    8.01    3.24
  -1   7   1    7.52    2.88
  -1   7   0  336.76   24.50
   1   7   0  355.10   22.07
   1   7   0  305.15   22.28
  -1   7   0  328.48   25.02
   1   7   0  310.14   23.48
  -1   7   0  291.80   22.37
   1   7   0  299.50   22.13
  -1  -7   0  291.00   21.47
   1  -7   0  290.51   20.95
  -1  -7   0  316.06   19.76
   1  -7   0  309.66   20.01
  -1   7   0  264.85   17.92
   1   7   1 1153.66   50.84
   1   7   1 1138.73   50.52
   1   7   1 1157.56   51.86
  -1   7  -1 1202.49   55.39
   1   7   1 1125.17   49.68
   1  -7   1 1108.37   49.10
  -1  -7  -1 1178.21   48.17
   1  -7   1 1085.53   45.92
  -1  -7  -1 1151.26   47.01
  -1   7  -2   37.40    7.81
   1   7   2   28.83    6.64
   1   7   2   32.80    6.74
   1   7   2   30.86    6.85
   1   7   2   44.83    7.53
   1  -7   2   26.22    6.12
   1  -7   2   38.23    6.93
  -1  -7  -2   34.47    6.10
   1  -7   2   40.83    6.43
  -1  -7  -2   38.99    6.74
  -1  -7  -2   44.46    7.15
  -1  -7  -3  639.96   30.86
  -1  -7  -3  672.59   31.30
  -1   7  -3  677.39   35.75
   1   7   3  568.83   31.04
   1   7   3  597.04   33.92
   1   7   3  575.17   31.83
  -1   7  -3  676.80   37.25
   1  -7   3  588.62   31.10
   1  -7   3  620.25   32.41
  -1   7  -3  651.65   34.06
   1   7   3  629.92   31.12
  -1   7  -3  627.15   34.49
   1  -7   3  569.17   27.73
  -1   7  -4   73.54   10.06
   1   7   4   66.12    9.73
   1   7   4   67.70    8.42
  -1   7  -4   73.63   10.09
  -1   7  -4   62.25    9.35
  -1  -7  -4   67.65    8.32
  -1  -7  -4   72.05    8.32
   1  -7   4   63.99    8.77
   1  -7   4   55.31    7.85
   1  -7   4   56.43    6.50
  -1  -7  -4   69.04    8.03
  -1   7  -5   40.17    7.44
  -1  -7  -5   39.69    5.89
  -1  -7  -5   36.56    5.95
   1   7   5   41.04    6.36
   1   7   5   36.51    7.18
  -1   7  -5   42.39    7.42
  -1   7  -5   41.50    7.38
   1  -7   5   41.22    7.02
   1  -7   5   25.97    5.46
   1   7   5   42.94    7.06
  -1  -7  -5   39.35    5.85
   1  -7   5   33.35    4.55
  -1  -7  -6  184.48   12.42
   1  -7   6  168.11   13.69
   1  -7   6  191.53   15.01
  -1   7  -6  167.01   14.16
   1   7   6  201.18   13.27
   1   7   6  176.99   15.56
  -1  -7  -6  212.36   16.62
  -1   7  -6  192.25   15.87
   1   7   6  169.90   14.49
   1   7   7  763.54   35.45
  -1   7  -7  740.05   33.33
   1  -7   7  804.95   35.13
   1  -7   7  807.38   34.39
  -1  -7  -7  805.79   30.64
  -1   7  -7  777.31   36.17
  -1  -7  -8   18.39    4.13
   1  -7   8   16.75    3.94
   1  -7   8   19.83    3.99
  -1   7  -8   15.75    4.69
   1   7   8   14.51    3.82
   1   7   8   15.45    3.88
  -1   7  -9  200.66   14.31
   1  -7   9  223.14   13.36
   1   7   9  212.21   13.59
  -1  -7  -9  208.92   13.04
   2   0 -18  683.53   38.72
  -2   0  18  734.05   43.18
  -2   0  18  657.01   42.64
  -2   0  17    2.71    3.51
  -2   0  17    8.46    5.81
   2   0 -17    0.79    4.72
  -2   0  16  183.49   26.28
  -2   0  16  313.48   25.29
   2   0 -16  245.82   26.41
  -2   0  16  249.39   27.22
  -2   0  16  246.60   27.96
  -2   0  15    6.59    4.68
   2   0 -15    2.54    4.66
   2   0 -15    1.10    4.62
  -2   0  15    3.99    3.16
   2   0 -15    5.58    4.43
  -2   0  15    3.78    5.65
  -2   0  15    2.33    4.90
  -2   0  14 1240.05   76.01
  -2   0  14 1410.37   72.72
   2   0 -14 1716.74   82.78
   2   0 -14 1693.03   75.95
  -2   0  14 1573.99   77.78
  -2   0  14 1141.52   76.25
  -2   0  14 1274.24   78.94
   2   0 -14 1640.92   88.96
   2   0 -13   -1.44    5.59
   2   0 -13    3.74    4.46
   2   0 -13    1.17    4.55
  -2   0  13    2.72    4.83
  -2   0  13    4.08    6.48
  -2   0  13    1.98    4.97
  -2   0  13    1.25    5.63
  -2   0  12  627.71   50.00
   2   0 -12  756.27   55.27
   2   0 -12  759.06   50.48
   2   0 -12  620.32   42.66
  -2   0  12  509.33   45.17
  -2   0  12  608.29   42.96
  -2   0  12  586.98   46.67
   2   0 -11    0.48    2.01
  -2   0  11    5.53    5.55
  -2   0  11    8.15    5.85
  -2   0  11    0.91    3.52
   2   0 -11    7.48    5.88
   2   0 -11    5.18    4.94
  -2   0  11    3.35    5.61
   2   0 -11    3.31    2.81
  -2   0  11    6.08    3.51
   2   0 -10 1956.84   73.57
  -2   0  10 2070.09   90.23
   2   0 -10 2043.97   89.07
   2   0 -10 2063.91   89.88
  -2   0  10 1999.68   94.95
   2   0 -10 2464.66   80.63
  -2   0  10 2029.48   80.69
   2   0 -10 2588.13   81.02
  -2   0  10 2161.80   96.30
  -2   0  10 2033.37   95.50
   2   0  -9    0.72    1.89
   2   0  -9    0.41    1.97
  -2   0   9    1.82    4.08
  -2   0   9    1.79    4.70
   2   0  -9    2.28    2.69
   2   0  -9    1.60    2.11
  -2   0   9    1.52    2.96
   2   0  -8 5869.23  160.00
   2   0  -8 4346.21  164.00
   2   0  -8 5518.24  159.66
   2   0  -8 4685.35  161.57
   2   0  -8 5102.16  172.00
  -2   0   8 5032.50  173.90
  -2   0   8 4927.94  169.62
   2   0  -8 4485.93  155.67
  -2   0   8 5185.85  180.33
   2   0  -8 5849.42  175.41
  -2   0   7    6.08    4.67
  -2   0   7    3.94    5.45
   2   0  -7    1.76    2.37
   2   0  -7    2.24    2.85
   2   0  -7   -1.28    4.20
   2   0  -7    4.93    2.50
   2   0  -7    2.12    3.04
  -2   0   7    3.69    4.14
   2   0  -7   -1.26    3.86
   2   0  -6  260.71   17.33
   2   0  -6  254.34   19.10
   2   0  -6  304.29   24.46
  -2   0   6  308.74   23.28
   2   0  -5    4.03    3.68
  -2   0   5    4.18    4.64
  -2   0   5    0.98    4.03
   2   0  -4 4774.15  156.81
  -2   0   4 5181.21  162.43
  -2   0   3    5.64    3.11
   2   0  -3    2.90    2.53
  -2   0   3    6.78    4.06
   2   0  -2 3621.83  137.12
  -2   0   2 5301.52  144.72
  -2   0   2 6162.19  143.31
   2   0  -2 4572.30  146.17
   2   0  -2 4368.19  141.70
   2   0  -1   10.19    2.79
   2   0  -1    1.78    2.80
  -2   0   1    1.41    5.11
   2   0   0  251.70   14.40
   2   0   0  246.57   10.56
  -2   0   0  163.32   14.62
   2   0   0  189.70    9.74
   2   0   0  166.75    8.30
  -2   0   0  157.94   12.54
   2   0   1    8.18    2.17
  -2   0  -1    6.29    4.99
   2   0   2 8429.84  237.66
  -2   0  -2 7969.83  253.85
  -2   0  -3    0.98    4.45
   2   0   3    0.20    2.04
  -2   0  -4 7513.33  220.68
   2   0   4 7119.71  210.98
  -2   0  -5   19.20    7.74
   2   0   5    6.74    4.23
  -2   0  -6  211.27   22.23
   2   0   6  173.90   15.80
  -2   0  -7    5.63    3.57
  -2   0  -7   10.97    6.33
   2   0   7    4.87    4.82
   2   0   7    1.41    3.25
  -2   0  -7    3.51    4.46
   2   0   8 5733.62  187.42
   2   0   8 5256.38  166.58
   2   0   9    5.47    3.26
   2   0   9   -1.05    4.98
  -2   0  -9    1.15    6.31
   2   0   9   -0.70    3.16
  -2   0  -9    6.80    5.11
   2   0   9    6.25    5.26
  -2   0 -10 2739.03  119.95
   2   0  10 2634.12  115.42
  -2   0 -10 2330.56  101.77
  -2   0 -10 2637.53  112.90
   2   0  10 2831.78  108.45
  -2   0 -11    4.22    6.71
   2   0  11    3.70    5.54
  -2   0 -11    1.71    4.51
   2   0  11    6.59    4.73
  -2   0 -11    8.16    6.41
  -2   0 -12    2.51    4.89
   2   0  12   14.23    7.95
  -2   0 -12    1.53    4.20
   2   0  12    3.80    4.77
  -2   0 -13    2.63    4.66
  -2   0 -13    1.01    5.79
   2   0  13    7.82    6.21
  -2   0 -13    3.22    5.11
   2   0  13    1.00    3.17
   2   0  13    3.35    4.34
  -2   0 -13    3.47    4.36
  -2   0 -13    0.95    4.52
   2   0  13    2.80    3.32
  -2   0 -14 3153.91  141.98
   2   0  14 3685.06  121.84
  -2   0 -14 3053.71  130.76
  -2   0 -14 2808.02  112.71
  -2   0 -14 2333.35  110.55
  -2   0 -15    7.00    4.78
  -2   0 -15    1.24    5.55
   2   0  15    4.05    4.82
  -2   0 -16 1599.86   87.40
  -2   0 -16 1315.71   64.65
  -2   0 -16 1642.06   83.61
   2   0  16 2144.86   83.06
   2   0  16 2081.86   86.54
  -2   0 -17    2.59    2.03
  -2   0 -17    0.94    4.22
  -2   0 -17    6.07    4.76
   2   0  17   -0.73    3.08
   2   0  17    4.95    3.26
  -2   0 -18   69.84   10.39
  -2   0 -18   46.80    8.52
   2   2 -17  123.05   13.47
  -2  -2  17  121.43   16.12
  -2  -2  17  123.51   15.81
  -2   2  17  165.06   17.46
  -2   2  17   77.34   12.80
   2  -2 -17  133.30   16.63
  -2   2  17   78.27   12.79
  -2  -2  17  123.39   12.97
   2  -2 -17  111.42   12.71
   2   2 -17   81.84   11.78
  -2  -2  16  168.36   17.69
  -2   2  16   98.86   16.88
   2   2 -16  155.11   16.99
  -2   2  16  177.96   21.15
  -2  -2  16  148.65   20.06
  -2   2  16   59.52   13.71
  -2  -2  16  166.45   20.54
   2  -2 -16  137.09   16.38
   2   2 -16  120.53   16.11
   2   2 -15   34.40    9.49
   2   2 -15   31.06    9.06
   2  -2 -15   33.85    9.26
   2  -2 -15   35.54    8.93
  -2  -2  15   38.39    9.65
  -2   2  15   25.39    9.14
  -2   2  15   14.20    8.23
  -2  -2  15   35.50   11.38
  -2  -2  15   29.81   10.69
  -2   2  15   14.73    8.07
  -2   2  14 1166.14   73.38
  -2   2  14 1768.70   74.67
  -2  -2  14 1531.51   81.84
  -2   2  14  995.05   73.92
  -2  -2  14 1544.65   73.65
   2  -2 -14 1657.33   72.47
  -2   2  14 1011.31   72.35
  -2   2  14  978.58   59.45
   2  -2 -14 1706.32   74.44
   2   2 -14 1578.96   73.25
   2   2 -14 1238.68   67.75
   2  -2 -14 1859.83   83.15
   2   2 -14 1226.34   73.69
  -2   2  14 1672.95   74.46
  -2   2  14 1272.01   77.25
  -2  -2  14 1997.05   81.68
  -2  -2  13    9.31    7.00
  -2   2  13    8.62    5.27
  -2   2  13    5.38    6.75
  -2   2  13    1.50    6.75
  -2  -2  13    9.23    6.30
   2  -2 -13    1.80    3.79
  -2   2  13   10.07    7.22
  -2   2  13    4.63    4.16
   2  -2 -13    3.23    4.52
   2   2 -13   10.80    6.43
   2   2 -13    7.87    5.20
   2   2 -13   18.45    7.71
   2  -2 -13    5.66    5.19
   2   2 -13    4.96    5.20
   2  -2 -13   12.65    6.83
  -2   2  13    5.28    5.03
  -2   2  13    5.45    6.12
  -2   2  13    4.88    3.88
  -2   2  12  290.58   33.91
  -2   2  12  341.01   31.45
  -2  -2  12  375.76   37.40
  -2  -2  12  411.64   34.93
   2  -2 -12  320.99   29.70
  -2   2  12  262.70   33.06
  -2   2  12  284.17   28.82
   2  -2 -12  422.13   36.69
   2   2 -12  303.37   29.07
   2  -2 -12  390.69   32.46
   2   2 -12  345.79   30.36
   2   2 -12  298.08   32.21
   2  -2 -12  446.69   37.71
  -2   2  12  306.58   31.56
  -2   2  12  238.95   30.69
  -2   2  11  248.63   28.33
   2  -2 -11  340.51   32.16
   2   2 -11  202.07   25.69
   2   2 -11  254.30   25.96
   2  -2 -11  366.59   30.72
   2   2 -11  273.33   27.26
  -2  -2  11  290.87   32.43
  -2   2  11  265.95   27.74
  -2   2  11  297.19   33.11
   2  -2 -11  294.30   28.08
  -2  -2  11  318.91   30.69
  -2  -2  11  356.70   30.69
   2   2 -11  373.68   24.46
   2  -2 -11  274.00   22.33
   2  -2 -11  272.58   25.46
   2  -2 -11  344.48   32.80
  -2   2  11  235.49   31.52
  -2   2  11  194.93   27.09
   2  -2 -10  990.39   56.24
  -2   2  10  915.18   58.31
   2   2 -10  801.96   53.86
   2  -2 -10 1266.30   63.54
  -2   2  10  980.27   62.00
  -2  -2  10  994.26   62.71
  -2   2  10  915.19   55.86
   2  -2 -10  986.26   56.06
  -2  -2  10 1039.66   58.31
  -2  -2  10 1144.46   58.47
  -2   2  10 1167.89   66.64
  -2   2  10  791.02   48.76
   2   2 -10 1240.60   50.38
   2  -2 -10  973.06   48.70
   2  -2 -10 1092.73   61.39
   2  -2 -10  919.14   51.49
   2  -2 -10 1085.67   61.94
   2   2 -10  924.14   52.67
   2  -2 -10 1165.94   58.00
   2  -2 -10 1129.72   64.68
   2   2 -10  972.54   55.83
  -2   2  10  938.97   63.34
  -2  -2  10  957.97   62.57
  -2   2  10  737.88   54.95
   2  -2  -9    7.69    5.76
  -2  -2   9   12.32    7.33
  -2   2   9   15.75    7.35
  -2   2   9    6.48    6.41
  -2  -2   9    8.92    5.84
  -2   2   9    8.92    6.63
  -2  -2   9    9.78    5.34
  -2   2   9   15.75    5.96
   2   2  -9    9.84    4.35
   2  -2  -9    5.61    3.71
   2  -2  -9    6.96    5.47
   2  -2  -9    6.00    5.94
   2  -2  -9    8.11    5.11
  -2   2   9    8.15    6.47
   2   2  -9   14.00    6.52
   2  -2  -9    7.85    4.99
   2   2  -9    3.02    3.98
  -2   2   9    2.34    5.57
  -2  -2   9    5.82    5.55
  -2   2   9   11.44    6.81
   2  -2  -8 4646.08  157.32
  -2  -2   8 4573.63  165.54
  -2   2   8 4164.45  156.48
  -2  -2   8 4665.38  158.22
   2   2  -8 4681.48  146.45
  -2   2   8 5066.14  169.38
  -2  -2   8 4739.12  155.52
   2  -2  -8 4326.47  148.65
  -2   2   8 3476.55  146.04
   2   2  -8 5285.60  147.82
   2  -2  -8 4657.50  163.35
   2  -2  -8 4154.72  150.63
  -2   2   8 3190.62  151.10
  -2   2   8 4109.18  161.83
  -2  -2   8 4216.20  164.00
   2  -2  -7   69.60   12.61
  -2   2   7   86.70   14.18
  -2   2   7   73.52   13.56
  -2  -2   7   88.08   15.67
  -2  -2   7   88.14   13.77
  -2   2   7  100.21   16.46
   2   2  -7   86.72   11.06
  -2   2   7   92.41   13.04
   2   2  -7   85.58   10.47
  -2   2   7   84.79   15.14
   2  -2  -7   73.45   13.77
   2  -2  -7   70.87   12.04
   2  -2  -7   87.32   15.11
  -2   2   7   58.80   12.27
   2   2  -7   94.67   10.14
  -2  -2   7   83.03   15.56
  -2   2   6  477.01   35.45
   2   2  -6  610.60   33.77
   2  -2  -6  758.73   44.78
  -2  -2   6  731.02   40.72
  -2   2   6  862.80   47.71
   2  -2  -6  615.42   35.78
  -2   2   6  682.18   41.85
   2  -2  -6  594.25   36.88
  -2  -2   6  677.84   45.15
   2   2  -6  679.80   33.17
  -2  -2   6  619.06   42.29
  -2   2   6  787.85   44.19
  -2   2   5  358.75   27.14
  -2  -2   5  277.06   26.09
   2   2  -5  308.29   25.70
   2   2  -5  266.90   20.16
  -2   2   5  216.66   21.40
   2  -2  -5  351.46   27.64
   2   2  -5  286.24   19.58
  -2   2   5  341.53   27.60
   2  -2  -5  266.06   21.91
  -2   2   5  295.81   24.03
   2  -2  -5  269.44   22.92
   2   2  -5  285.56   18.96
  -2  -2   5  334.99   27.30
  -2  -2   5  300.72   27.74
   2   2  -4 3002.35  106.30
   2   2  -4 2933.73   92.09
   2  -2  -4 2538.53   98.65
  -2   2   4 3010.82  100.29
  -2  -2   4 2939.83  105.26
  -2  -2   4 2686.70  109.21
   2   2  -3  400.61   26.23
   2   2  -3  388.21   28.90
   2   2  -3  405.69   21.07
  -2   2   3  439.84   24.39
  -2  -2   3  329.32   27.33
  -2  -2   3  346.74   27.14
   2  -2  -3  393.33   26.35
   2   2  -3  389.01   21.59
  -2  -2   3  366.51   31.13
   2   2  -2 5735.95  192.52
   2   2  -2 6299.26  189.04
   2   2  -2 5473.36  178.72
   2  -2  -2 4933.11  187.32
  -2  -2   2 5556.82  194.09
   2  -2  -2 6244.17  186.10
  -2  -2   2 5268.89  189.36
   2   2  -2 6012.68  175.85
  -2   2   2 4776.83  181.31
  -2   2   2 6885.37  179.12
  -2  -2   2 6549.45  180.96
  -2  -2   1  607.87   26.00
  -2   2   1  445.22   26.86
  -2   2   1  713.67   34.03
   2   2  -1  582.85   37.86
   2  -2  -1  578.56   36.03
   2   2  -1  595.87   29.68
  -2  -2   1  739.06   43.44
   2  -2  -1  563.49   34.05
   2  -2  -1  662.37   32.25
  -2   2   0  852.30   36.79
   2  -2   0  771.96   34.78
  -2  -2   0  664.75   36.61
   2  -2   0  740.66   39.98
   2   2   0  617.45   34.15
   2  -2   1  474.13   24.57
   2  -2   1  562.53   33.53
   2  -2   1  493.28   25.00
  -2  -2  -1  527.09   21.82
   2   2   1  389.57   26.65
  -2   2  -1  366.17   20.67
   2  -2   2 3527.53  116.80
  -2  -2  -2 3440.87  115.20
   2  -2   2 3669.04  123.94
   2  -2   2 3845.26  114.64
  -2   2  -2 3262.63  111.88
  -2   2  -3  161.87   17.81
  -2  -2  -3  205.87   19.36
   2  -2   3  153.08   10.38
  -2  -2  -3  147.24   12.12
   2  -2   3  186.27   12.51
   2  -2   3  214.55   17.35
   2   2   3  154.75   17.49
   2   2   3  212.09   20.83
   2   2   4 5448.43  176.25
  -2   2  -4 4137.67  168.00
  -2  -2  -4 5825.55  173.66
   2  -2   4 5105.87  155.41
   2  -2   4 5819.27  170.30
   2  -2   4 5228.45  152.71
  -2  -2  -4 5119.55  149.58
   2   2   4 4398.02  170.73
  -2  -2  -4 4892.91  175.40
  -2  -2  -5  869.05   42.08
  -2  -2  -5  887.29   52.62
  -2  -2  -5  926.38   53.44
  -2   2  -5 1124.81   45.12
   2   2   5 1030.91   53.79
  -2   2  -5  823.61   48.94
  -2  -2  -5 1076.39   51.94
   2   2   5  879.55   48.42
   2   2   5  878.87   51.44
   2  -2   5 1118.94   51.00
  -2  -2  -6   23.46    6.36
   2   2   6   25.27    7.73
  -2  -2  -6    3.78    4.98
  -2  -2  -6    1.86    5.92
   2   2   6    4.60    5.06
  -2   2  -6   31.54    6.55
  -2  -2  -6    3.94    5.31
  -2   2  -6    2.55    4.05
   2   2   6    8.10    6.70
   2  -2   6    5.08    4.75
   2   2   7  789.91   49.15
  -2   2  -7  618.25   43.18
  -2  -2  -7  804.02   47.01
   2   2   7  594.83   40.81
   2  -2   7  794.72   44.94
   2   2   7  582.76   36.43
  -2  -2  -7  634.40   45.30
  -2   2  -7  761.53   35.89
  -2  -2  -7  574.36   29.80
   2   2   7  566.87   43.11
  -2  -2  -7  626.58   36.26
  -2   2  -8 3756.10  113.99
  -2   2  -8 3281.85  102.53
   2   2   8 2279.49  108.94
   2   2   8 3435.74  123.19
   2   2   8 2374.34  103.62
  -2  -2  -8 2356.43   94.73
  -2  -2  -8 2719.91  100.03
   2   2   8 2356.98  108.81
  -2  -2  -8 2528.37  108.96
  -2  -2  -8 3394.88  119.36
  -2   2  -8 2524.67  110.72
  -2   2  -8 2112.97   97.21
  -2   2  -8 2253.07   99.93
   2   2   8 2454.67   97.51
   2  -2   8 2955.39  111.00
  -2   2  -9   81.09   13.72
   2   2   9  105.68   15.90
   2   2   9   83.14   16.00
  -2  -2  -9   80.58   11.96
   2   2   9   69.30   15.50
   2   2   9   61.89   13.64
  -2  -2  -9   71.33   14.60
  -2   2  -9  115.61   16.49
  -2  -2  -9  108.81   18.47
  -2   2  -9  104.72   18.32
  -2  -2  -9  114.39   17.35
  -2   2  -9   71.87   14.16
   2   2   9   83.39   12.12
   2  -2   9  100.00   16.72
  -2   2 -10 2656.75  114.64
   2   2  10 3084.39  127.51
  -2  -2 -10 2763.85  109.03
   2   2  10 2497.36  123.99
   2   2  10 2872.24  123.53
  -2  -2 -10 3006.75  125.72
  -2   2 -10 4172.78  130.64
  -2   2 -10 2962.72  117.21
  -2  -2 -10 3786.82  138.46
  -2   2 -10 2916.97  129.01
  -2  -2 -10 3728.20  131.95
  -2   2 -10 2728.07  121.00
   2  -2  10 3123.34  125.92
  -2   2 -11   56.66   13.00
  -2   2 -11   54.28   11.41
  -2  -2 -11   60.93   13.96
   2   2  11   88.65   16.30
  -2  -2 -11   50.10    9.78
   2   2  11   61.46   14.74
   2   2  11   71.99   14.66
  -2   2 -11   62.93   14.24
  -2  -2 -11   62.76   14.49
  -2   2 -11   66.63   12.83
  -2   2 -11   80.90   14.96
   2  -2  11   76.17   15.30
  -2  -2 -11   88.81   18.31
  -2   2 -11   71.20   16.48
   2   2  12   50.03   11.95
   2  -2  12   34.45    9.14
  -2  -2 -12   17.22    6.23
   2   2  12   27.87   10.20
  -2   2 -12   33.59   11.98
  -2  -2 -12   44.31   13.57
  -2   2 -12   18.97    6.97
  -2   2 -12   24.12    7.96
  -2   2 -12   18.84    7.83
  -2   2 -12   22.63    9.19
   2  -2  12   39.50   11.54
   2   2  12   23.89   10.49
  -2   2 -13  308.96   31.63
   2   2  13  495.74   36.45
   2  -2  13  417.27   31.78
   2   2  13  511.98   41.03
   2   2  13  468.10   44.56
  -2  -2 -13  465.99   39.40
  -2   2 -13  340.81   34.20
  -2  -2 -13  438.64   42.20
  -2   2 -13  333.63   37.46
   2   2  13  482.68   39.69
   2  -2  13  445.56   38.48
   2   2  13  533.63   44.86
  -2   2 -13  384.89   30.87
  -2  -2 -13  455.20   46.76
   2  -2  14 2561.15   94.81
   2   2  14 3243.02  113.10
  -2   2 -14 2014.83   97.61
  -2  -2 -14 2621.65  108.76
  -2   2 -14 1961.44   99.71
   2   2  14 2615.36  109.03
  -2   2 -14 2148.70   91.91
  -2  -2 -14 2695.37  124.23
  -2   2 -14 1925.22   97.57
  -2   2 -15    8.08    6.62
  -2  -2 -15   17.35    7.96
  -2   2 -15   11.55    6.16
   2  -2  15   16.67    6.83
  -2  -2 -15   14.98    6.86
  -2  -2 -15   12.11    8.28
  -2   2 -15    8.79    4.47
   2   2  15   21.48    7.85
   2   2  16 1882.51   77.02
  -2   2 -16 1448.16   70.48
  -2  -2 -16 1611.51   79.87
  -2   2 -16 1422.42   62.88
  -2  -2 -16 1786.52   73.59
   2  -2  16 2015.05   77.01
   2   2  16 2262.83   78.86
  -2  -2 -16 1594.40   71.18
  -2   2 -16 1299.39   68.25
   2   2  17  119.49   13.48
  -2   2 -17   77.90   10.57
  -2  -2 -17   93.18   10.83
   2  -2  17  123.42   13.43
   2  -2  17  151.23   15.02
   2   2  17  161.37   14.18
  -2  -2 -17  110.08   12.21
  -2  -2 -17   91.81   13.48
   2   4 -16  118.17   12.35
   2  -4 -16   97.24    8.59
  -2   4  16  101.15   10.80
  -2  -4  16   99.37   11.33
  -2   4  15   69.58    9.85
  -2  -4  15  101.85   13.58
   2  -4 -15  124.80   12.47
   2   4 -15  134.44   15.34
  -2  -4  15  135.55   14.32
  -2   4  15   96.09   12.60
   2  -4 -15  137.35   12.39
  -2  -4  14  660.38   40.98
  -2   4  14  379.61   30.89
   2  -4 -14  757.02   39.77
   2   4 -14  580.42   33.93
   2  -4 -14  777.66   40.52
   2   4 -14  684.48   36.56
   2   4 -14  783.84   44.63
   2  -4 -14  743.85   36.40
  -2  -4  14  657.43   38.96
  -2   4  14  750.07   40.27
  -2   4  14  442.36   34.93
  -2  -4  13  202.84   23.28
  -2   4  13  122.70   16.92
  -2   4  13  262.08   22.14
   2  -4 -13  230.29   22.84
   2  -4 -13  220.03   22.72
   2   4 -13  211.21   20.58
   2  -4 -13  204.15   19.51
  -2   4  13  111.51   15.04
  -2  -4  13  203.17   22.14
  -2   4  13  146.50   19.01
  -2   4  13  150.09   20.31
  -2   4  12  212.55   24.36
  -2  -4  12  329.07   32.29
  -2   4  12  334.36   28.89
   2   4 -12  357.81   25.40
   2  -4 -12  381.42   31.98
   2  -4 -12  400.14   32.99
   2   4 -12  337.28   25.66
   2   4 -12  351.34   29.28
  -2   4  12  266.06   28.89
  -2  -4  12  349.10   31.28
  -2   4  12  277.14   29.64
  -2   4  12  204.48   22.52
   2  -4 -12  390.08   29.60
  -2   4  11  576.27   45.47
  -2   4  11  611.95   47.22
  -2  -4  11  749.20   49.43
  -2   4  11  469.25   38.09
  -2   4  11  460.84   39.06
  -2  -4  11  673.04   49.14
  -2   4  11  523.17   41.59
   2   4 -11  742.54   40.19
   2  -4 -11  739.44   40.84
   2  -4 -11  834.85   51.00
   2  -4 -11  852.16   52.64
   2  -4 -11  901.24   53.02
   2   4 -11  705.52   45.46
  -2   4  11  515.92   39.80
   2  -4 -11  754.75   45.01
  -2   4  11  554.11   45.14
  -2  -4  11  648.52   47.48
  -2  -4  10  817.33   54.09
  -2   4  10  703.10   51.39
  -2   4  10  796.07   54.98
  -2   4  10  617.01   44.48
  -2   4  10  613.44   45.49
  -2  -4  10  924.76   59.72
   2   4 -10  905.78   46.43
  -2   4  10  721.32   50.70
   2  -4 -10 1074.09   61.89
   2  -4 -10  923.18   48.09
   2  -4 -10 1067.45   59.50
   2   4 -10  873.10   53.02
   2  -4 -10  958.44   52.59
  -2  -4  10  767.35   54.12
  -2   4  10  586.91   48.44
  -2  -4   9  424.49   39.55
  -2   4   9  346.51   31.11
  -2   4   9  292.55   30.86
   2   4  -9  439.97   30.69
   2  -4  -9  446.90   29.95
   2  -4  -9  491.67   41.26
   2  -4  -9  409.76   31.41
  -2   4   9  374.61   34.88
  -2  -4   9  419.88   37.39
  -2   4   9  416.32   37.61
   2   4  -9  484.55   40.19
   2  -4  -9  429.15   34.61
  -2   4   9  283.32   31.10
  -2  -4   9  381.26   36.70
  -2  -4   8  799.46   54.09
  -2   4   8  595.68   41.90
  -2  -4   8  769.41   54.29
  -2   4   8  833.35   56.86
   2  -4  -8  752.30   49.58
  -2   4   8  692.92   48.04
   2   4  -8  823.95   44.37
   2  -4  -8  947.89   59.73
   2  -4  -8  791.94   46.86
  -2  -4   8  708.45   50.49
  -2   4   8  670.50   47.67
  -2   4   8  760.57   51.85
   2   4  -8  794.74   53.71
   2  -4  -8  764.36   42.77
  -2   4   8  595.83   43.25
   2  -4  -8  846.23   50.07
   2  -4  -7  896.95   49.06
   2  -4  -7  681.76   47.45
  -2   4   7  778.03   53.69
  -2  -4   7  741.73   52.82
   2   4  -7  806.44   43.99
  -2   4   7  689.33   43.96
  -2   4   7  686.87   47.03
   2   4  -7  858.19   42.66
   2  -4  -7  723.41   45.17
  -2  -4   7  634.87   48.96
   2   4  -7  779.98   52.11
   2  -4  -7  812.13   48.39
  -2  -4   7  698.62   49.32
  -2   4   7  670.50   45.72
  -2   4   7  610.92   41.24
   2  -4  -7  667.49   40.80
  -2  -4   6  180.85   23.41
  -2   4   6  234.89   23.92
  -2   4   6  249.54   26.91
   2   4  -6  238.42   20.36
   2  -4  -6  246.85   24.05
  -2  -4   6  181.41   24.87
   2  -4  -6  209.29   24.65
  -2   4   6  288.12   29.61
  -2   4   6  242.91   23.54
   2   4  -6  243.90   21.15
   2  -4  -6  254.96   24.67
  -2   4   6  206.28   20.33
   2  -4  -6  173.70   19.60
   2  -4  -6  234.52   23.84
   2   4  -6  249.49   27.67
   2  -4  -5 1471.19   67.65
  -2  -4   5 1344.25   57.37
   2   4  -5 1510.09   72.16
  -2   4   5 1264.88   69.34
  -2  -4   5 1322.93   70.05
  -2   4   5 1365.12   65.08
  -2   4   5 1417.39   71.13
   2   4  -5 1537.28   63.02
   2  -4  -5 1665.00   70.69
   2  -4  -5 1327.35   70.64
  -2  -4   5 1378.98   74.88
  -2   4   5 1635.26   76.73
  -2   4   5 1422.75   66.29
  -2   4   5 1159.69   65.39
   2   4  -5 1600.58   64.96
   2  -4  -5 1128.30   62.53
   2  -4  -5 1344.15   68.95
   2   4  -5 1495.58   58.79
  -2   4   4 1383.97   59.81
   2  -4  -4 1449.83   64.28
  -2  -4   4 1327.41   57.51
   2   4  -4 1546.38   73.77
   2  -4  -4 1474.87   72.72
  -2   4   4 1166.11   67.02
  -2  -4   4 1385.90   69.77
  -2   4   4 1495.39   70.78
  -2   4   4 1223.18   60.28
  -2  -4   4 1295.79   69.73
   2   4  -4 1559.39   63.45
   2  -4  -4 1660.50   70.06
  -2   4   4 1558.03   72.75
  -2  -4   4 1333.51   72.03
  -2   4   4 1478.58   66.14
   2   4  -4 1503.18   63.83
   2   4  -4 1599.79   64.95
  -2   4   4 1226.89   65.50
  -2   4   4 1267.38   62.98
   2  -4  -4 1322.57   68.13
   2   4  -4 1461.84   59.73
  -2  -4   4 1159.22   60.96
  -2   4   3   86.89   12.85
   2  -4  -3   72.97   11.15
  -2  -4   3   76.87   10.72
   2  -4  -3   93.50   16.11
   2   4  -3   63.28   13.50
   2  -4  -3   74.11   13.86
  -2   4   3   68.11   13.81
   2   4  -3   71.11   10.81
  -2  -4   3   73.91   14.02
  -2   4   3   84.78   13.77
   2   4  -3   74.56   11.48
  -2  -4   3   66.88   13.83
  -2  -4   3   64.11   13.86
  -2   4   3   75.82   12.30
   2   4  -3   73.84   11.33
   2   4  -3   82.97   12.36
  -2   4   3   71.30   12.82
   2   4  -3   93.64    9.98
   2  -4  -3   74.97   13.76
   2   4  -3   66.28   10.47
  -2  -4   3   55.82   10.91
  -2   4   2 2117.32   85.82
   2  -4  -2 2025.86   81.32
   2   4  -2 2448.54  102.79
   2  -4  -2 2474.85   98.58
  -2  -4   2 1843.80   79.83
   2  -4  -2 2635.31  102.28
  -2   4   2 2114.71   96.17
   2   4  -2 1951.04   90.19
  -2   4   2 2554.73   93.39
   2   4  -2 2188.70   86.19
   2   4  -2 2367.83   88.54
  -2  -4   2 2509.17  101.39
  -2  -4   2 2358.60   98.73
  -2   4   2 2370.69   90.26
   2   4  -2 2129.24   84.34
  -2   4   2 2029.21   88.75
   2   4  -2 2011.92   79.84
  -2  -4   2 2286.37   90.33
   2  -4  -2 2463.14   98.86
   2   4  -2 2251.08   86.53
   2  -4  -1 1592.77   64.79
  -2  -4   1 1710.95   70.01
   2   4  -1 1464.41   68.11
   2   4  -1 1772.74   85.21
   2  -4  -1 2049.46   85.64
   2  -4  -1 2152.23   89.12
   2   4  -1 1619.90   76.08
  -2   4   1 1755.37   82.32
  -2   4   1 1928.23   75.40
   2   4  -1 1745.43   74.90
  -2  -4   1 1727.42   76.21
   2  -4  -1 1935.36   84.20
  -2  -4   1 1999.71   87.05
  -2  -4   1 2032.23   87.72
  -2   4   1 1915.97   76.66
   2   4  -1 1648.57   69.15
   2   4  -1 1870.81   74.49
  -2   4   1 1628.28   74.13
   2   4  -1 1474.12   67.86
  -2   4   1 1675.00   70.49
  -2   4   0   19.05    5.69
  -2  -4   0   14.69    5.14
   2   4   0   13.55    7.23
  -2  -4   0   17.43    8.32
   2  -4   0   10.96    6.16
   2   4   0   18.82    7.17
   2   4   0   15.04    6.11
  -2   4   0   18.65    5.91
   2   4   0   25.43    7.26
   2   4   0   22.42    5.72
   2  -4   0   18.20    6.50
  -2  -4   0   18.54    8.97
   2   4   0   36.65    7.42
  -2   4   0   29.89    7.94
  -2   4   0   19.46    6.20
   2   4   0   16.68    5.78
  -2  -4   0   13.95    5.88
  -2   4   0   40.98    9.07
   2   4   0   28.63    7.56
   2  -4   0   13.77    6.82
  -2   4  -1  828.10   44.29
  -2  -4  -1  930.52   45.46
  -2  -4  -1 1016.99   57.70
   2   4   1  832.75   47.32
   2   4   1  828.94   48.20
   2   4   1  852.97   45.14
   2  -4   1  871.13   45.94
   2   4   1  761.16   39.84
  -2   4  -1 1028.41   47.38
   2   4   1  893.56   45.23
  -2  -4  -1  960.22   49.35
   2   4   1  764.72   45.67
  -2  -4  -1 1027.71   49.39
   2  -4   1  808.29   46.66
   2   4   1  748.59   45.11
  -2   4  -2 2368.35  101.22
  -2   4  -2 2687.53  103.91
   2   4   2 2364.23  105.98
  -2  -4  -2 3066.90  119.55
  -2   4  -2 3061.36  115.76
   2   4   2 2868.07  107.54
   2   4   2 2647.16  109.57
   2   4   2 2745.83  103.71
  -2  -4  -2 3378.94  120.28
   2  -4   2 2634.81  103.47
   2   4   2 2482.91   96.15
  -2   4  -2 3219.32  109.08
  -2   4  -2 3242.08  105.39
   2   4   2 2872.19  103.73
  -2  -4  -2 3195.04  113.51
  -2   4  -2 2894.89  106.86
   2   4   2 2491.27  107.44
  -2  -4  -2 3282.51  109.30
   2  -4   2 2653.00  104.80
  -2   4  -3    3.49    4.14
  -2   4  -3   13.23    5.74
  -2   4  -3   15.01    4.83
  -2  -4  -3   13.28    5.50
  -2  -4  -3    4.08    5.12
  -2   4  -3   19.80    7.63
   2   4   3    7.92    4.84
  -2  -4  -3    1.87    4.45
   2   4   3   -0.64    2.86
   2  -4   3   10.05    5.42
   2  -4   3    3.86    3.39
  -2   4  -3    4.01    3.36
   2   4   3    8.89    4.51
  -2   4  -3   12.96    5.52
   2   4   3   11.95    6.06
   2  -4   3    2.03    3.40
   2   4   3   10.00    5.46
   2  -4   3    1.71    3.59
  -2  -4  -3   10.57    4.92
  -2   4  -4 2312.61  105.85
  -2  -4  -4 3586.82  112.99
  -2   4  -4 3464.97  108.07
   2   4   4 2615.67  115.33
  -2   4  -4 2621.16  103.87
  -2  -4  -4 3072.60  123.14
   2   4   4 2620.69  114.69
   2   4   4 2743.56  106.37
  -2  -4  -4 3433.83  124.17
  -2  -4  -4 3107.06  116.28
   2  -4   4 2602.14  108.01
  -2   4  -4 3900.79  116.89
   2   4   4 2758.27  104.89
  -2   4  -4 3376.08  113.08
  -2   4  -4 3608.23  125.99
   2   4   4 3440.27  116.31
   2   4   4 2599.07  114.85
   2   4   4 2610.18  111.26
  -2  -4  -4 3321.28  110.88
   2  -4   4 2984.79  116.81
   2  -4   4 2459.02  106.08
   2   4   5 1062.72   61.94
  -2  -4  -5 1268.48   66.56
   2   4   5 1137.43   54.27
  -2  -4  -5 1314.48   70.41
  -2  -4  -5 1247.12   61.47
   2  -4   5 1064.26   57.79
   2   4   5 1038.34   61.54
  -2   4  -5 1575.46   63.09
  -2   4  -5 1329.81   59.08
   2   4   5 1231.84   54.98
  -2  -4  -5 1513.40   74.63
  -2   4  -5 1312.42   55.83
  -2  -4  -5 1390.60   58.74
   2   4   5 1037.38   61.97
  -2   4  -5 1130.65   54.98
   2   4   5 1473.52   63.20
  -2   4  -5 1475.95   69.40
   2   4   5  902.71   58.89
   2  -4   5 1053.38   60.52
   2   4   5  976.05   57.25
   2   4   6  107.91   17.18
  -2  -4  -6  121.64   18.89
   2  -4   6   98.41   15.79
  -2  -4  -6  112.03   15.97
   2   4   6   87.82   16.34
  -2  -4  -6  116.46   19.38
  -2   4  -6  161.32   17.80
  -2   4  -6  144.69   16.47
  -2  -4  -6  143.79   16.67
  -2   4  -6  155.32   20.10
  -2   4  -6  131.77   15.98
  -2  -4  -6  134.73   21.18
  -2  -4  -6  134.51   15.39
   2   4   6  106.78   15.98
   2  -4   6   98.50   16.49
  -2   4  -7 1143.16   55.39
  -2  -4  -7 1241.51   52.08
  -2  -4  -7 1243.93   70.36
  -2   4  -7 1248.48   61.37
   2  -4   7  972.41   57.94
   2   4   7  817.02   51.37
   2   4   7  824.31   56.34
  -2  -4  -7 1091.79   64.50
  -2  -4  -7 1041.44   54.27
  -2   4  -7 1436.57   59.47
   2   4   7  783.99   53.99
   2   4   7  606.20   49.69
  -2   4  -7 1160.58   53.06
   2   4   7  834.19   54.88
   2   4   7  849.36   56.97
  -2  -4  -7 1117.74   53.87
   2   4   8 1725.74   90.62
   2  -4   8 1871.18   91.24
   2   4   8 1941.60   86.69
  -2  -4  -8 2212.33  100.84
   2   4   8 1552.08   86.99
   2   4   8 1252.27   82.70
  -2   4  -8 2494.82   94.41
  -2  -4  -8 2537.04  109.79
  -2  -4  -8 2503.37   82.79
  -2   4  -8 2523.28   93.17
  -2  -4  -8 2311.04   87.71
   2   4   9    8.02    4.93
   2  -4   9    5.75    4.57
   2  -4   9    8.32    5.72
  -2  -4  -9    9.64    5.00
   2   4   9    9.39    5.74
   2   4   9    8.89    6.12
  -2  -4  -9   13.21    8.39
  -2  -4  -9    6.55    6.58
  -2   4  -9   14.66    6.57
  -2   4  -9   17.61    6.85
  -2   4  -9    9.37    5.76
  -2   4  -9   14.27    7.19
   2   4   9    3.29    4.27
   2   4  10 1103.11   64.70
  -2  -4 -10 1303.72   58.63
   2   4  10  944.39   63.17
   2   4  10  857.89   60.05
   2   4  10 1161.91   65.25
  -2  -4 -10 1274.45   73.49
  -2  -4 -10 1345.85   73.19
  -2   4 -10 1596.80   68.93
  -2  -4 -10 1319.54   74.39
  -2   4 -10 1391.39   61.51
  -2   4 -10 1326.77   69.33
   2  -4  10 1302.24   68.56
   2  -4  10 1220.92   65.17
   2   4  11  960.55   55.90
  -2  -4 -11  975.42   46.94
   2   4  11  806.96   54.17
   2   4  11  757.95   52.48
  -2   4 -11  913.16   55.55
  -2  -4 -11 1008.40   61.87
  -2  -4 -11  975.73   59.81
  -2   4 -11 1040.11   48.41
   2  -4  11  992.22   57.37
  -2   4 -11 1066.53   59.41
  -2  -4 -11  986.68   61.08
  -2   4 -11 1143.85   55.94
   2   4  12   24.08    7.44
   2   4  12   22.93    6.22
  -2  -4 -12   42.69   11.01
  -2  -4 -12   14.21    7.03
  -2   4 -12    9.30    5.22
  -2   4 -12   20.74    7.93
   2   4  12   10.27    5.94
   2   4  12   10.99    5.83
  -2   4 -12   18.89    7.22
  -2  -4 -12   15.06    7.32
  -2  -4 -13  719.98   44.53
  -2   4 -13  713.63   41.62
  -2   4 -13  618.50   41.82
  -2  -4 -13  654.73   42.63
  -2   4 -13  752.43   42.85
   2  -4  13  662.78   40.97
   2   4  13  788.08   44.72
   2   4  13  816.12   42.31
  -2  -4 -14 1103.11   53.34
  -2  -4 -14 1192.56   52.80
  -2   4 -14 1185.50   51.97
  -2  -4 -14 1074.30   51.71
  -2   4 -14 1000.61   52.27
   2   4  14 1425.92   52.20
   2   4  14  826.52   45.88
   2  -4  14 1016.22   50.43
  -2   4 -15   10.38    4.45
   2  -4  15   11.97    4.40
   2   4  15   12.74    4.01
  -2   4 -15   15.88    4.63
  -2  -4 -15   14.63    4.68
   2   4  15   14.42    3.73
  -2  -6  12   47.39    6.38
  -2  -6  12   33.53    5.50
  -2   6  12   41.03    5.79
   2  -6 -12   41.08    6.05
   2   6 -12   30.71    5.69
  -2  -6  12   37.42    5.75
  -2  -6  11 1215.30   49.11
  -2  -6  11 1172.70   48.75
  -2   6  11 1121.72   48.75
   2  -6 -11 1424.67   51.82
   2   6 -11 1140.65   47.21
   2   6 -11 1074.88   47.07
   2  -6 -11 1330.14   46.88
   2   6 -11 1191.78   51.26
  -2  -6  10  151.12   14.69
  -2  -6  10  152.57   14.79
  -2   6  10  124.36   13.99
   2  -6 -10  199.77   17.14
   2  -6 -10  178.40   15.66
   2   6 -10  146.86   15.92
  -2   6  10  119.00   14.04
   2   6 -10  147.24   14.56
  -2   6   9   35.55    8.21
   2  -6  -9   48.13    6.13
   2  -6  -9   59.20    9.89
   2   6  -9   42.92    6.85
  -2   6   9   49.77    9.77
   2   6  -9   38.46    8.22
  -2  -6   9   45.07    8.45
  -2  -6   9   47.84    8.90
  -2  -6   8  621.63   35.64
  -2  -6   8  559.88   34.31
   2   6  -8  512.47   30.82
   2  -6  -8  558.76   28.57
  -2   6   8  540.02   36.00
   2   6  -8  487.08   32.21
  -2   6   8  521.33   35.58
   2  -6  -8  551.05   27.69
  -2  -6   7  673.45   38.76
   2  -6  -7  774.23   41.15
  -2  -6   7  621.65   37.76
   2   6  -7  549.72   32.29
  -2   6   7  642.24   35.60
   2  -6  -7  831.20   44.46
   2   6  -7  570.13   35.05
   2  -6  -7  674.25   33.87
   2   6  -7  578.27   36.45
  -2   6   7  623.19   40.35
   2  -6  -7  638.80   32.56
  -2  -6   6   17.16    6.55
  -2  -6   6   13.98    5.56
   2  -6  -6   11.29    5.27
   2   6  -6   16.91    5.99
  -2   6   6   18.08    5.84
   2   6  -6   17.23    5.38
   2  -6  -6   18.22    5.31
   2   6  -6   14.48    5.24
   2   6  -6   12.07    5.01
   2   6  -6   14.31    6.20
   2  -6  -6   13.94    4.56
  -2  -6   6   17.00    3.97
  -2   6   6   35.51    9.16
  -2   6   5 1442.37   69.75
  -2  -6   5 1481.90   65.27
  -2  -6   5 1567.44   68.51
   2  -6  -5 1798.81   72.50
  -2   6   5 1495.94   67.97
   2   6  -5 1595.15   68.44
   2   6  -5 1551.39   65.56
  -2   6   5 1435.30   71.16
   2   6  -5 1464.36   66.98
   2  -6  -5 1672.78   65.16
   2   6  -5 1508.38   70.42
   2  -6  -5 1471.18   62.06
  -2  -6   5 1406.41   56.61
   2   6  -5 1440.41   66.06
  -2   6   4  343.86   28.28
   2   6  -4  326.62   26.01
   2  -6  -4  354.67   28.01
  -2  -6   4  342.14   27.09
  -2   6   4  386.43   29.74
  -2   6   4  321.73   28.70
   2   6  -4  354.20   26.47
   2   6  -4  368.69   27.47
   2   6  -4  360.44   28.13
   2  -6  -4  372.11   25.81
  -2  -6   4  343.45   27.71
  -2  -6   4  312.47   21.36
   2   6  -4  304.92   27.15
  -2   6   4  334.77   26.80
   2  -6  -4  366.91   24.79
   2  -6  -3   50.38    9.84
  -2  -6   3   43.17    8.02
  -2  -6   3   32.96    8.16
   2  -6  -3   33.95    8.40
   2   6  -3   33.28    7.90
  -2   6   3   27.01    7.93
   2   6  -3   24.93    7.15
  -2   6   3   29.02    8.17
   2   6  -3   26.36    7.89
  -2   6   3   34.72    8.60
  -2  -6   3   27.84    8.06
   2  -6  -3   34.45    8.60
  -2  -6   3   37.01    7.05
  -2   6   3   39.31    8.83
  -2   6   2  975.94   50.28
  -2  -6   2 1017.04   49.98
  -2   6   2  970.27   46.15
  -2   6   2 1125.65   57.04
   2   6  -2 1055.92   51.60
   2   6  -2 1086.23   53.31
  -2   6   2 1108.42   56.47
  -2   6   2 1003.83   56.51
   2   6  -2 1019.87   53.49
  -2   6   2  959.52   53.50
   2   6  -2  976.43   52.05
  -2  -6   2 1069.89   54.91
   2  -6  -2 1076.97   53.74
  -2  -6   2 1037.81   47.76
  -2  -6   2 1161.51   50.95
   2  -6  -2 1129.04   53.54
   2   6  -2 1141.20   54.36
  -2  -6   1 1275.98   57.18
  -2   6   1 1098.55   52.47
  -2   6   1 1370.43   64.61
  -2   6   1 1261.08   61.60
   2   6  -1 1297.30   61.83
  -2   6   1 1272.61   65.76
  -2   6   1 1218.47   62.87
  -2  -6   1 1362.01   63.71
   2  -6  -1 1300.49   60.78
   2  -6  -1 1367.50   60.75
  -2  -6   1 1415.03   58.40
   2   6  -1 1302.30   63.11
  -2  -6   1 1303.12   56.35
  -2  -6   0    2.31    3.04
  -2   6   0   16.00    5.05
  -2   6   0    3.14    3.30
  -2   6   0    7.63    4.12
  -2   6   0   10.72    5.49
   2   6   0    2.88    3.23
  -2  -6   0    1.57    3.53
   2  -6   0    4.12    4.08
   2  -6   0    7.53    4.46
  -2  -6   0    3.39    2.97
   2  -6   0    5.87    4.01
  -2  -6   0   10.18    4.11
   2   6   0    3.22    3.13
   2   6   1 1785.92   75.46
  -2  -6  -1 1862.50   73.15
  -2   6  -1 1605.57   69.83
  -2   6  -1 1881.46   76.01
   2   6   1 1730.72   75.75
   2   6   1 1791.24   77.55
  -2  -6  -1 2097.22   83.74
   2  -6   1 1802.15   76.52
   2  -6   1 1774.49   74.15
  -2  -6  -1 2004.14   75.03
   2  -6   1 1897.34   76.22
   2   6   1 1810.84   81.22
   2   6   2  779.86   44.91
  -2  -6  -2  878.67   42.46
  -2   6  -2  659.96   38.24
   2   6   2  781.63   43.12
  -2   6  -2  961.14   49.30
   2   6   2  779.95   42.99
  -2   6  -2  819.74   48.40
  -2   6  -2  836.87   48.82
   2   6   2  882.14   45.39
   2  -6   2  745.81   43.01
   2  -6   2  776.99   42.02
  -2  -6  -2  927.88   49.98
   2   6   2  844.16   48.84
   2  -6   2  796.77   43.03
  -2  -6  -3   20.89    5.83
   2  -6   3    5.41    3.57
   2  -6   3    1.84    3.08
  -2   6  -3   22.96    7.25
   2   6   3    5.43    3.18
   2   6   3    4.64    4.07
  -2  -6  -3    7.28    4.07
  -2  -6  -3    9.09    4.38
   2   6   3   21.39    6.21
  -2   6  -3    4.38    3.84
   2   6   3   10.34    4.43
  -2   6  -3    4.04    3.64
  -2   6  -3    5.65    3.59
   2   6   3    4.15    3.95
   2  -6   3    8.29    4.42
   2   6   4  837.12   48.87
  -2  -6  -4  952.99   44.58
  -2  -6  -4 1065.71   49.04
   2   6   4  790.61   46.36
  -2  -6  -4  998.25   51.25
   2  -6   4  787.54   40.26
   2   6   4  781.02   42.18
  -2   6  -4  981.07   49.70
   2   6   4  885.39   43.70
  -2   6  -4  881.72   48.98
   2   6   4  924.03   44.36
  -2   6  -4  886.38   49.33
   2  -6   4  775.70   43.22
  -2  -6  -4 1017.66   46.22
   2  -6   4  896.11   45.82
   2   6   5 1134.00   59.48
   2  -6   5 1132.54   54.80
  -2  -6  -5 1392.59   62.59
   2  -6   5 1139.24   51.26
  -2  -6  -5 1413.54   58.40
   2   6   5 1206.67   59.76
  -2   6  -5 1394.46   61.11
   2   6   5 1063.83   50.77
  -2   6  -5 1211.77   58.73
   2   6   5 1319.57   53.65
   2  -6   5 1114.81   54.25
  -2   6  -5 1350.09   63.86
   2   6   5 1407.93   55.69
  -2   6  -5 1223.69   58.71
   2  -6   5 1012.70   47.03
  -2  -6  -5 1361.14   55.48
  -2   6  -6    0.79    3.08
  -2  -6  -6    6.53    4.60
   2   6   6    6.12    4.20
  -2  -6  -6    6.61    3.16
   2  -6   6    6.36    3.56
  -2   6  -6    3.91    2.93
   2   6   6    1.73    2.17
  -2   6  -6    8.13    4.55
   2  -6   6    1.17    2.79
   2   6   6    2.33    3.48
  -2  -6  -6    2.49    2.37
   2  -6   6    1.32    1.96
  -2  -6  -7 2156.52   81.15
   2  -6   7 1751.25   69.88
   2   6   7 1685.91   77.24
   2   6   7 1872.45   66.82
  -2  -6  -7 2377.13   89.39
   2   6   7 1576.59   75.39
  -2   6  -7 1690.40   70.95
  -2  -6  -7 2059.34   70.99
  -2   6  -7 1776.86   79.21
  -2  -6  -8  793.76   34.10
  -2  -6  -8  881.63   46.07
   2   6   8  591.99   37.55
  -2   6  -8  670.94   33.28
  -2  -6  -8  783.37   33.86
   2   6   8  636.04   39.39
   2  -6   8  683.53   34.64
   2   6   9   29.82    6.49
  -2  -6  -9   50.96    9.54
  -2  -6  -9   45.00    8.80
  -2   6  -9   32.57    8.13
   2   6   9   32.28    7.09
   2  -6   9   37.59    6.64
  -2  -6  -9   47.30    6.67
   2   6  10  605.47   25.09
  -2  -6 -10  672.23   30.65
  -2  -6 -10  693.09   30.42
   2  -6  10  545.19   21.86
  -2   6 -10  558.18   28.75
  -2  -6 -10  617.92   21.37
  -2  -6 -11  941.61   35.45
   2   6  11  982.20   38.58
  -2  -6 -11 1036.89   42.89
  -2  -6 -11 1011.92   42.14
  -2   6 -11 1068.26   45.67
   2   6  11  876.34   39.27
  -2   6 -11  832.01   40.58
  -2  -8   1  977.39   32.89
   2  -8  -1  944.21   33.35
   2   8  -1  890.19   32.70
   2  -8   0   19.06    2.91
  -2  -8   0   19.19    2.94
   2   8   0   19.79    3.65
  -2   8   0   20.63    3.59
   2   8   0   18.31    2.84
  -3  -1  18   81.64   10.82
  -3   1  18   64.52    9.96
  -3  -1  18   68.80   11.62
  -3   1  18   63.83   10.75
   3  -1 -18   72.24    9.70
   3   1 -18   68.08    9.93
  -3   1  17    4.82    5.93
   3   1 -17    6.25    3.98
   3  -1 -17    1.89    2.65
  -3  -1  17    5.12    4.34
  -3   1  17    8.40    5.09
   3   1 -16 1646.00   64.36
   3  -1 -16 1486.72   66.30
   3   1 -16 1336.38   65.09
  -3   1  16  766.93   61.04
  -3  -1  16 1135.38   68.92
  -3   1  16 1451.82   68.14
  -3   1  16  955.21   62.53
  -3  -1  16 1376.56   68.36
   3   1 -15   17.02    7.63
   3  -1 -15   17.08    7.69
   3   1 -15   22.80    7.60
  -3  -1  15   18.50    8.29
  -3   1  15   23.16    8.20
  -3  -1  15   10.65    7.92
  -3   1  15   10.02    8.51
  -3   1  15    8.69    5.93
  -3   1  14 1182.80   75.43
  -3   1  14 1448.39   71.35
   3  -1 -14 1594.22   82.04
   3   1 -14 1309.22   78.50
   3   1 -14 1423.69   73.85
   3   1 -14 1533.08   69.65
   3  -1 -14 1601.19   75.78
  -3  -1  14 1392.80   75.13
  -3  -1  14 1080.90   72.33
  -3   1  14  925.10   67.12
  -3   1  14 1298.62   72.47
  -3  -1  14 1227.74   77.50
  -3  -1  13  199.73   28.53
  -3  -1  13  218.08   22.46
  -3   1  13  185.77   25.09
  -3  -1  13  211.28   25.81
  -3   1  13  176.89   26.32
  -3   1  13  179.41   19.71
   3   1 -13  207.43   23.27
   3   1 -13  227.52   26.84
   3  -1 -13  283.66   29.18
  -3  -1  13  246.51   28.98
   3  -1 -13  247.59   30.12
   3   1 -13  214.49   28.90
  -3   1  13  193.24   23.86
  -3  -1  13  180.29   26.39
  -3   1  13  178.94   25.51
  -3   1  12  316.68   35.97
  -3  -1  12  335.70   33.92
  -3  -1  12  346.70   33.15
  -3   1  12  287.15   25.86
  -3   1  12  258.19   27.88
   3   1 -12  367.25   34.23
   3  -1 -12  357.42   29.49
   3   1 -12  338.86   30.15
   3  -1 -12  397.99   34.92
  -3   1  12  308.51   32.11
  -3  -1  12  345.05   28.70
  -3  -1  12  337.55   36.74
  -3  -1  12  280.98   33.19
  -3   1  12  241.47   29.28
   3   1 -11  112.05   13.37
  -3   1  11  105.10   15.15
   3  -1 -11  133.94   13.00
  -3   1  11   90.29   15.74
   3  -1 -11  124.46   16.63
   3  -1 -11  146.99   20.58
   3   1 -11  115.71   18.50
   3   1 -11  106.84   15.16
   3  -1 -11  131.07   20.63
  -3   1  11   99.25   17.96
  -3   1  11  115.83   16.16
  -3  -1  11  148.81   18.10
  -3   1  11  107.41   20.46
  -3  -1  11  116.03   19.89
  -3  -1  11  117.49   18.90
   3   1 -11  119.99   14.12
   3  -1 -11  129.12   13.27
   3  -1 -11  107.07   14.28
   3  -1 -11   96.45   15.97
   3  -1 -11  103.75   12.26
  -3  -1  11  106.97   19.32
  -3   1  11   86.81   16.48
   3  -1 -10 4467.78  133.70
   3   1 -10 4500.37  137.58
  -3   1  10 3577.90  140.77
  -3   1  10 2619.20  136.99
  -3   1  10 3835.55  138.82
  -3   1  10 3639.29  142.17
  -3   1  10 3894.74  152.84
  -3  -1  10 4189.01  144.20
  -3  -1  10 4091.56  155.63
   3  -1 -10 4120.98  145.70
   3  -1 -10 4509.09  135.44
   3   1 -10 4571.53  138.80
  -3  -1  10 4137.92  153.51
   3  -1 -10 4066.61  139.80
   3  -1 -10 4615.94  152.51
   3  -1 -10 4312.85  145.34
   3   1 -10 4416.32  144.70
   3  -1 -10 4868.24  163.22
   3  -1 -10 4101.09  135.44
  -3  -1  10 3704.27  154.83
  -3   1  10 3068.56  145.29
  -3   1  10 3287.35  145.52
  -3   1   9   66.14   13.26
  -3   1   9   50.63   10.22
  -3  -1   9   63.60   11.15
   3  -1  -9   61.63   11.47
  -3  -1   9   62.10   13.59
   3   1  -9   62.20    9.52
   3  -1  -9   56.13    8.82
  -3  -1   9   76.82   14.26
  -3   1   9   59.94   10.12
   3   1  -9   80.17    9.77
   3  -1  -9   53.50    9.86
   3  -1  -9   59.82   11.72
  -3   1   9   45.82   10.42
   3   1  -9   42.02    8.50
   3  -1  -9   50.98   12.22
   3   1  -9   63.55    9.33
   3  -1  -9   67.49   11.85
  -3   1   9   67.47   11.80
  -3   1   9   53.85   11.63
  -3   1   9   57.70   12.29
  -3  -1   9   54.60   13.48
   3  -1  -8 3905.92  131.41
   3   1  -8 3952.74  122.96
  -3   1   8 3856.18  138.83
  -3  -1   8 3718.71  129.10
  -3   1   8 3549.31  129.66
  -3  -1   8 3823.97  140.60
   3  -1  -8 3608.73  121.88
  -3   1   8 3538.23  140.14
   3   1  -8 3848.15  123.69
  -3  -1   8 3926.66  138.61
   3  -1  -8 3530.12  126.23
   3   1  -8 4305.11  122.58
  -3   1   8 3195.56  123.35
   3  -1  -8 3734.38  132.11
   3   1  -8 4105.98  141.86
   3  -1  -8 4461.71  147.44
   3   1  -8 3149.48  122.62
   3   1  -8 3325.25  120.25
  -3  -1   8 3359.32  138.78
  -3   1   8 2997.55  130.27
   3  -1  -7  404.08   28.12
   3   1  -7  461.07   25.45
  -3  -1   7  494.05   35.46
   3   1  -7  353.99   26.72
   3   1  -7  439.17   25.67
  -3   1   7  512.54   36.14
  -3  -1   7  513.12   34.76
   3  -1  -7  419.33   27.52
   3   1  -7  491.33   25.20
  -3   1   7  440.77   27.44
   3  -1  -7  429.50   29.25
   3  -1  -7  447.53   30.22
   3  -1  -7  370.71   26.83
  -3  -1   7  495.34   30.04
  -3   1   7  465.00   30.52
  -3   1   7  532.94   35.33
   3   1  -7  472.60   34.16
   3   1  -7  385.61   24.55
   3   1  -7  384.52   19.61
  -3   1   7  405.05   30.40
  -3  -1   7  478.78   35.95
   3  -1  -6  105.65   12.98
  -3  -1   6  144.42   17.99
   3   1  -6   64.67   10.41
   3   1  -6  108.79   11.31
  -3  -1   6  141.17   16.91
   3  -1  -6   91.27   11.90
   3  -1  -6   83.69   11.75
  -3  -1   6  117.61   17.26
   3  -1  -6  152.87   16.33
  -3   1   6  140.01   15.70
   3   1  -6  139.03   11.19
   3  -1  -6  132.69   16.38
   3   1  -6  112.74   15.64
  -3   1   6  152.73   17.60
  -3   1   6  123.07   14.50
   3   1  -6   85.15   10.59
   3  -1  -5  104.29   13.62
  -3   1   5   61.93    8.97
  -3  -1   5   95.81   14.98
  -3   1   5   94.35   12.03
   3  -1  -5  114.74   13.66
  -3   1   5  129.00   14.33
   3  -1  -5   88.53   11.31
   3   1  -5   91.79   10.67
   3  -1  -4 6258.39  177.18
  -3  -1   4 5603.52  184.28
  -3   1   4 5816.78  170.32
  -3   1   4 6311.67  166.64
   3  -1  -4 6604.11  176.56
  -3   1   4 7504.74  181.19
   3   1  -4 5190.52  166.80
  -3  -1   3    4.91    5.43
   3  -1  -3    4.15    3.73
  -3   1   3    4.81    3.18
  -3  -1   3    8.11    7.40
  -3   1   3    5.37    2.62
   3   1  -3    8.21    6.01
  -3   1   3    2.26    2.87
  -3   1   3    4.30    4.36
   3   1  -2 5465.66  175.45
   3   1  -2 4476.60  160.36
  -3  -1   2 6239.70  178.68
  -3   1   2 5715.40  180.65
   3  -1  -2 5011.21  164.27
  -3   1   2 5327.24  159.50
   3  -1  -2 5042.00  163.86
  -3  -1   2 4944.88  168.02
  -3   1   2 6591.91  171.70
  -3  -1   1  694.59   37.14
  -3   1   1  669.19   39.55
   3  -1  -1  580.07   30.60
  -3  -1   1  717.23   37.48
   3  -1  -1  720.87   32.25
   3   1  -1  647.81   29.58
  -3   1   0  761.51   43.22
  -3  -1   0  984.63   44.21
   3  -1   0  802.29   37.56
   3  -1   0 1042.41   38.56
   3  -1   0  923.36   38.07
   3   1   0  815.12   35.08
   3   1   1   14.45    6.62
   3  -1   1    9.15    1.73
  -3   1  -1    3.08    3.90
  -3  -1  -1    3.99    4.40
   3   1   1    4.54    3.33
   3  -1   2 5453.50  143.20
   3   1   2 4206.81  153.51
   3  -1   2 4643.44  142.86
   3   1   2 5836.58  164.42
  -3   1  -2 3895.29  158.51
  -3  -1  -2 6297.07  171.17
  -3   1  -3   29.28   10.30
  -3  -1  -3   39.71   11.32
   3   1   3   34.16    6.27
   3  -1   3   25.55    3.69
   3   1   3   23.24    7.07
  -3  -1  -3   39.18    9.24
  -3   1  -3   34.34    9.41
  -3  -1  -4 1553.61   70.44
  -3   1  -4 1434.39   70.27
   3   1   4 1261.45   53.68
   3  -1   4 1397.37   49.69
   3   1   4 1420.33   61.52
  -3  -1  -4 1729.01   67.94
  -3   1  -4 1549.77   65.84
   3   1   4 1246.12   60.41
   3  -1   5  893.52   34.73
   3   1   5  695.52   42.44
   3  -1   5  707.65   32.41
  -3  -1  -5  853.46   49.56
  -3   1  -5  806.40   49.52
  -3  -1  -5  597.87   39.37
   3   1   5  810.70   43.42
  -3  -1  -6 1061.07   58.86
  -3  -1  -6  988.54   55.82
   3   1   6 1705.31   69.19
  -3  -1  -6 1633.96   75.11
  -3   1  -6 1490.21   73.41
   3  -1   6 1396.00   54.24
   3   1   6 1304.39   64.65
   3  -1   6 1515.58   51.13
   3  -1   6 1550.09   61.72
   3   1   7   30.81    9.66
   3  -1   7   44.86    9.29
  -3  -1  -7   27.34    8.22
  -3  -1  -7   23.96    7.78
   3   1   7   48.39   11.19
  -3  -1  -7   43.17   12.50
  -3   1  -7   22.92    9.04
   3  -1   7   35.62    7.05
   3   1   7   27.74    7.47
   3   1   8 4648.57  145.72
  -3  -1  -8 4565.05  155.54
  -3   1  -8 3791.88  148.11
   3   1   8 3798.75  136.78
   3  -1   8 4328.41  136.09
  -3  -1  -8 2662.91  125.33
  -3  -1  -8 2887.56  129.64
   3  -1   8 4054.99  125.96
  -3  -1  -8 3179.56  117.05
   3   1   9   18.73    7.22
  -3  -1  -9    6.56    3.42
  -3   1  -9   16.85    5.84
  -3   1  -9   11.94    5.80
  -3  -1  -9   15.61    7.00
   3   1   9   10.06    6.78
  -3   1  -9   11.72    7.74
  -3  -1  -9   11.86    7.55
   3   1   9   13.60    8.37
   3  -1   9   18.02    7.01
   3   1   9   17.29    6.87
  -3  -1  -9   12.54    6.20
  -3   1  -9    9.94    7.44
  -3  -1  -9   41.86   12.05
  -3   1  -9   10.03    4.56
  -3   1  -9    9.74    5.63
   3  -1   9   14.05    5.32
   3   1  10  687.67   44.30
   3  -1  10  752.07   40.20
  -3  -1 -10  757.76   52.81
  -3   1 -10  620.23   47.79
   3  -1  10  719.67   44.70
   3   1  10  692.95   43.45
   3   1  10  732.99   55.98
  -3  -1 -10  472.22   38.99
   3   1  10  820.26   51.18
  -3   1 -10  598.72   40.77
  -3   1 -10  502.19   37.39
  -3  -1 -10  563.06   42.01
  -3  -1 -10  680.45   53.88
  -3   1 -10  656.22   52.91
  -3   1 -10  498.96   38.62
  -3   1 -10  515.58   36.54
   3   1  11  175.59   23.41
   3  -1  11  164.60   18.09
   3   1  11  173.90   23.33
   3   1  11  162.97   26.20
   3  -1  11  163.74   20.85
  -3  -1 -11  163.93   26.74
  -3   1 -11  118.46   22.56
  -3   1 -11  120.72   17.16
  -3   1 -11  117.17   16.69
  -3  -1 -11  127.70   18.86
   3   1  11  169.52   23.10
  -3   1 -11  131.73   21.43
  -3  -1 -11  136.79   22.42
  -3   1 -11  104.73   16.96
   3   1  12 1169.60   64.90
   3  -1  12  936.31   59.24
   3   1  12 1092.63   62.17
   3   1  12 1115.44   71.39
   3  -1  12 1116.16   59.45
  -3  -1 -12  981.00   69.96
  -3   1 -12  832.47   64.28
  -3   1 -12  810.30   50.69
  -3   1 -12  747.17   47.55
   3   1  12 1133.64   64.18
  -3   1 -12  847.28   59.68
  -3  -1 -12  950.01   63.79
  -3   1 -12  687.52   50.01
   3   1  13   74.27   14.31
   3   1  13   59.40   16.05
  -3  -1 -13   60.14   16.83
  -3   1 -13   42.62   14.33
  -3  -1 -13   65.30   18.71
  -3   1 -13   48.91   10.97
  -3  -1 -13   40.40   11.60
  -3   1 -13   42.24    9.79
   3   1  13   74.34   15.37
  -3   1 -13   51.81   13.74
  -3   1 -13   40.84   11.33
  -3  -1 -13   53.58   14.86
   3   1  13   75.72   15.94
   3  -1  13   57.78   13.83
   3   1  14 2084.75   89.69
  -3   1 -14 1419.64   77.68
   3  -1  14 1998.91   81.07
   3   1  14 2201.80  100.75
  -3  -1 -14 1767.41   99.49
  -3   1 -14 1543.69   94.46
   3   1  14 2119.85   91.04
  -3  -1 -14 1808.97  102.29
  -3  -1 -14 1524.89   79.12
  -3   1 -14 1575.31   89.54
  -3   1 -14 1529.17   70.73
  -3   1 -14 1424.93   73.08
   3   1  14 2521.50   97.19
   3  -1  14 1806.58   88.80
  -3  -1 -14 1890.78   94.76
  -3   1 -14 1674.54   89.89
  -3   1 -15   10.98    5.01
  -3   1 -15   15.96    8.11
  -3  -1 -15   21.82    7.89
  -3  -1 -15    7.32    6.98
  -3  -1 -15   10.84    7.42
  -3   1 -15   18.97    9.03
   3  -1  15   18.67    6.28
   3  -1  15   19.15    7.01
   3   1  15   25.45    8.20
   3  -1  16  122.47   14.85
  -3  -1 -16   86.75   12.74
  -3  -1 -16   81.52   15.90
  -3   1 -16   58.65   11.55
  -3  -1 -16   57.74    8.94
  -3   1 -16   91.79   15.30
  -3  -1 -16  101.33   15.89
   3   1  16  131.55   16.76
   3   1  16  112.59   13.77
   3   1  17   59.53    9.77
   3   1  17   58.17   10.22
  -3  -1 -17   39.80    9.12
  -3  -1 -17   36.56    6.92
  -3  -1 -17   37.63    8.13
   3  -1  17   50.83    9.81
  -3   1 -17   33.43    8.16
   3  -3 -17  238.88   16.82
   3   3 -17  295.58   19.06
  -3  -3  17  201.99   17.75
  -3  -3  17  258.97   19.72
  -3   3  17  288.41   20.02
  -3  -3  16  958.04   50.48
   3  -3 -16 1271.93   52.11
  -3   3  16  984.54   51.34
  -3  -3  16 1095.77   52.57
  -3   3  16 1288.81   49.40
   3   3 -16 1369.38   52.84
   3  -3 -16 1076.58   41.26
  -3  -3  15   22.14    8.21
  -3   3  15   10.18    6.25
  -3  -3  15   14.91    6.54
  -3   3  15   20.79    8.02
  -3   3  15    9.49    5.50
   3  -3 -15   21.47    6.22
   3   3 -15   26.11    7.61
   3   3 -15   15.51    4.90
   3  -3 -15   16.09    4.75
   3   3 -14  715.83   42.59
   3  -3 -14  991.91   45.67
   3  -3 -14 1114.44   55.19
  -3  -3  14  831.39   54.40
  -3   3  14  609.06   49.24
  -3  -3  14  956.96   57.06
  -3  -3  14  993.63   57.62
  -3   3  14  759.56   55.09
   3  -3 -14 1123.42   52.65
  -3  -3  14  943.61   47.53
  -3   3  14  528.53   46.00
   3   3 -14 1104.20   56.09
   3   3 -14 1083.81   51.42
   3  -3 -13  310.35   27.30
  -3   3  13  180.26   25.46
  -3  -3  13  306.47   26.38
  -3   3  13  224.39   27.98
  -3   3  13  231.78   25.07
   3  -3 -13  351.37   30.87
  -3  -3  13  293.71   31.38
  -3  -3  13  288.65   31.13
  -3   3  13  245.16   26.78
   3   3 -13  317.29   27.66
   3   3 -13  171.23   19.58
   3  -3 -13  294.35   23.77
  -3  -3  13  347.24   29.40
  -3  -3  13  287.55   29.87
  -3   3  13  198.54   25.79
   3   3 -12   76.04   14.28
   3   3 -12  131.47   18.94
   3  -3 -12  110.41   14.64
   3   3 -12   78.83   13.02
  -3  -3  12  108.04   20.16
  -3   3  12  100.18   17.92
  -3  -3  12   82.42   17.68
   3  -3 -12  108.08   16.82
  -3  -3  12  108.45   16.34
  -3   3  12   74.84   16.29
  -3   3  12   92.31   18.25
  -3   3  12   96.12   15.76
   3   3 -12  117.77   14.22
   3  -3 -12  108.54   13.14
   3  -3 -12   99.81   15.23
   3  -3 -12  112.84   18.30
   3  -3 -12  106.85   16.49
  -3   3  12   84.39   15.35
  -3  -3  12   95.96   18.03
  -3  -3  12  113.06   20.70
  -3   3  12   80.66   17.10
  -3  -3  12  118.73   18.29
  -3   3  11  433.27   35.15
   3   3 -11  280.03   29.28
   3   3 -11  507.80   38.48
   3  -3 -11  494.30   32.53
   3   3 -11  314.20   27.54
  -3   3  11  392.36   36.62
  -3  -3  11  453.79   40.90
  -3   3  11  414.23   39.04
  -3  -3  11  456.36   42.07
  -3   3  11  334.22   34.79
  -3  -3  11  502.64   36.55
  -3   3  11  370.72   36.43
   3   3 -11  473.15   30.74
   3  -3 -11  450.80   30.09
  -3   3  11  366.73   32.77
   3  -3 -11  451.54   33.82
   3  -3 -11  503.45   39.94
  -3   3  11  382.96   34.18
   3  -3 -11  474.61   36.58
  -3  -3  11  426.07   41.28
  -3   3  11  318.69   34.50
  -3  -3  11  440.74   36.98
  -3   3  10 2685.26  112.68
   3   3 -10 1954.00  101.27
   3  -3 -10 3536.80  113.79
   3  -3 -10 3299.28  125.23
   3   3 -10 3094.51  117.78
   3   3 -10 2156.98   98.43
  -3   3  10 2557.71  117.88
  -3  -3  10 2876.47  124.04
  -3  -3  10 2921.55  125.87
  -3   3  10 2542.30  115.45
  -3   3  10 2111.36  109.05
  -3  -3  10 2921.65  112.88
  -3   3  10 2252.03  111.71
   3  -3 -10 2985.85  106.17
  -3   3  10 2223.12  107.35
   3   3 -10 3257.71  105.80
   3  -3 -10 3267.93  122.19
   3  -3 -10 3437.76  125.05
   3  -3 -10 2983.96  111.40
  -3   3  10 2342.46  108.73
   3  -3 -10 3139.10  116.44
  -3  -3  10 2708.44  124.22
  -3   3  10 1849.33  106.58
  -3  -3  10 3037.71  118.84
  -3   3   9  177.94   21.81
  -3  -3   9  209.10   27.26
  -3  -3   9  184.64   26.26
  -3   3   9  216.39   25.91
  -3   3   9  184.87   24.37
  -3   3   9  174.28   22.43
  -3  -3   9  204.48   22.82
  -3   3   9  191.04   23.95
  -3   3   9  175.85   21.96
   3   3  -9  206.85   19.48
   3  -3  -9  165.49   19.22
   3  -3  -9  224.94   25.88
   3  -3  -9  191.11   21.75
   3  -3  -9  211.13   20.75
   3   3  -9  112.00   16.74
   3  -3  -9  232.43   26.75
   3  -3  -9  203.55   23.52
  -3   3   9  167.04   21.68
  -3  -3   9  158.04   24.78
  -3  -3   9  226.79   25.96
  -3   3   9  134.38   20.31
  -3  -3   9  174.98   24.37
   3  -3  -8 1742.84   78.82
  -3   3   8 1479.25   74.66
  -3  -3   8 1600.08   84.47
  -3  -3   8 1435.73   80.07
  -3   3   8 1595.00   79.44
  -3   3   8 1637.79   81.06
  -3  -3   8 1595.03   74.34
  -3   3   8 1275.59   71.96
  -3   3   8 1403.98   72.97
   3   3  -8 1713.63   68.97
   3   3  -8 1762.89   66.90
   3  -3  -8 1861.18   83.90
   3  -3  -8 1601.94   75.36
   3  -3  -8 1839.13   82.84
   3   3  -8 1529.62   75.23
   3  -3  -8 1697.62   73.74
  -3  -3   8 1608.21   79.47
  -3  -3   8 1567.84   85.40
  -3  -3   8 1514.79   80.47
  -3   3   8 1088.91   68.17
  -3  -3   7  594.22   47.11
  -3  -3   7  623.61   46.95
  -3   3   7  747.82   47.84
  -3   3   7  628.18   43.45
   3   3  -7  752.83   36.46
  -3  -3   7  696.51   42.74
  -3   3   7  606.56   41.08
  -3   3   7  618.70   42.37
   3   3  -7  715.07   38.44
  -3   3   7  543.13   37.89
   3   3  -7  815.31   39.15
   3  -3  -7  691.51   46.93
   3  -3  -7  668.58   43.39
   3   3  -7  696.26   36.71
   3  -3  -7  725.28   46.34
   3   3  -7  649.74   42.93
   3  -3  -7  594.95   39.36
  -3  -3   7  657.89   45.29
  -3  -3   7  592.65   45.16
  -3   3   7  448.27   36.45
  -3  -3   6  130.52   21.24
  -3  -3   6  128.54   20.01
  -3   3   6  138.30   18.14
   3   3  -6  171.98   15.80
  -3  -3   6  140.31   17.53
  -3  -3   6  122.18   20.22
   3  -3  -6  137.96   19.24
  -3   3   6  136.75   16.91
  -3   3   6  128.71   16.63
  -3   3   6  145.53   18.53
   3   3  -6  156.32   16.21
   3   3  -6  198.50   17.58
   3  -3  -6  151.85   19.11
   3  -3  -6  133.88   18.13
   3   3  -6  112.10   12.47
   3   3  -6  144.03   15.20
   3  -3  -6  115.45   16.20
  -3  -3   6  130.80   19.81
  -3  -3   6  145.44   19.84
  -3   3   5 1607.97   70.67
  -3  -3   5 1401.22   76.20
  -3   3   5 1713.66   71.39
  -3  -3   5 1393.24   66.43
   3   3  -5 1749.15   63.77
   3  -3  -5 1434.73   72.25
  -3   3   5 1427.20   63.68
  -3  -3   5 1521.20   80.25
  -3   3   5 1569.32   68.56
  -3  -3   5 1275.21   58.23
  -3   3   5 1618.41   71.22
   3  -3  -5 1717.50   72.76
   3   3  -5 1783.84   80.45
   3   3  -5 1657.91   64.35
   3   3  -5 1436.55   60.87
  -3   3   5 1173.70   61.57
   3  -3  -5 1211.62   65.79
  -3  -3   5 1595.18   61.39
  -3  -3   5 1375.07   73.32
  -3  -3   5 1416.20   71.76
  -3   3   4 7186.12  216.37
  -3   3   4 7116.32  213.37
  -3   3   4 7895.84  222.53
  -3  -3   4 5992.78  223.60
   3   3  -4 7548.77  208.68
  -3  -3   4 5727.42  209.79
  -3  -3   4 6779.39  232.12
  -3   3   4 6835.73  213.33
  -3   3   4 6860.42  216.28
  -3  -3   4 6425.00  203.11
   3   3  -4 7767.00  209.30
   3   3  -4 8087.69  233.63
   3   3  -4 7284.73  208.59
   3  -3  -4 6934.41  220.23
  -3   3   4 4625.60  201.77
  -3  -3   4 6412.84  199.59
  -3   3   4 4706.50  208.99
   3   3  -4 6084.23  199.22
  -3  -3   4 6437.14  223.80
  -3   3   3  445.59   30.48
  -3  -3   3  368.52   33.88
  -3   3   3  518.25   33.50
   3   3  -3  491.10   28.53
  -3  -3   3  412.95   37.79
  -3   3   3  506.19   31.73
  -3  -3   3  363.08   24.36
   3   3  -3  483.06   27.56
  -3   3   3  388.59   29.45
   3  -3  -3  393.69   31.81
   3   3  -3  516.40   33.37
   3   3  -3  456.26   27.67
   3   3  -3  511.10   39.21
  -3   3   3  329.31   28.97
  -3   3   3  274.47   22.18
   3   3  -3  390.58   25.06
  -3  -3   3  453.25   36.98
  -3   3   2 2207.14   80.92
  -3  -3   2 2090.26   91.85
  -3   3   2 2284.64   82.53
   3   3  -2 2045.51   75.32
  -3  -3   2 2194.73   98.11
   3   3  -2 2046.05   72.90
  -3  -3   2 1841.75   71.44
  -3   3   2 2263.65   82.14
  -3   3   2 2096.69   79.45
  -3   3   2 1831.79   78.00
   3   3  -2 1880.12   89.15
   3  -3  -2 2055.04   83.70
   3   3  -2 2304.36   87.41
   3  -3  -2 2084.84   86.55
  -3   3   2 1623.89   78.63
  -3   3   2 1397.46   64.66
   3  -3  -2 1820.42   84.34
  -3  -3   2 1844.79   76.50
   3   3  -2 1686.46   72.44
  -3  -3   1 3420.32  117.10
  -3   3   1 3236.46   96.21
  -3   3   1 2795.01   92.46
  -3  -3   1 3288.44  118.24
  -3   3   1 3062.60   95.36
   3   3  -1 2608.99   84.10
  -3  -3   1 2494.33   84.55
  -3   3   1 2890.07   93.58
  -3   3   1 2467.14   90.82
   3   3  -1 2812.37   88.73
   3   3  -1 2275.66  102.08
  -3  -3   1 2661.61   96.80
   3  -3  -1 2845.08   99.13
   3   3  -1 2521.55   85.99
   3   3  -1 2190.80   86.98
  -3   3   1 1155.13   69.06
   3  -3  -1 2659.39   91.41
  -3  -3   1 2918.61   96.45
   3  -3  -1 2546.06   98.76
  -3  -3   0 1576.32   65.63
   3  -3   0 1473.32   60.91
   3  -3   0 1587.95   69.77
   3   3   0 1547.91   60.26
  -3  -3   0 1705.40   78.80
  -3  -3   0 1804.48   82.75
   3   3   0 1513.21   55.96
  -3   3   0 1663.32   63.87
   3   3   0 1568.35   59.92
   3   3   0 1558.10   77.63
  -3  -3   0 1475.17   71.14
   3   3   0 1462.12   58.03
  -3  -3   0 1622.62   69.82
  -3  -3   0 1590.15   74.46
  -3   3   0 1499.41   66.28
   3   3   0 1241.72   60.58
  -3   3   0 1592.71   62.75
   3   3   1  552.52   31.66
  -3  -3  -1  628.35   44.40
  -3   3  -1  711.51   37.48
  -3   3  -1  645.20   34.65
   3   3   1  527.14   27.87
  -3  -3  -1  616.88   40.60
  -3   3  -1  559.85   33.96
  -3  -3  -1  524.69   38.56
   3   3   1  547.44   30.64
  -3  -3  -1  556.50   36.68
  -3  -3  -1  540.60   40.25
   3   3   1  571.70   35.33
  -3   3  -1  551.03   36.46
  -3   3  -1  623.31   37.65
  -3  -3  -1  652.13   33.72
   3  -3   1  552.43   31.95
   3  -3   1  551.04   35.91
   3   3   1  440.48   33.03
   3   3   2 4207.28  176.05
  -3   3  -2 7011.52  184.00
  -3   3  -2 5752.24  177.83
  -3  -3  -2 5546.06  185.84
  -3  -3  -2 5083.55  186.98
  -3  -3  -2 4939.44  183.40
   3   3   2 4828.84  168.68
  -3   3  -2 6012.17  185.19
   3   3   2 5461.41  177.32
  -3  -3  -2 5639.11  171.49
   3  -3   2 5699.91  182.14
   3  -3   2 4808.66  174.02
   3   3   2 5263.54  172.17
  -3  -3  -2 5953.63  196.31
  -3   3  -3 1441.07   57.41
   3   3   3 1086.49   47.67
  -3   3  -3 1246.73   53.53
  -3  -3  -3  926.44   54.70
  -3  -3  -3  980.79   55.54
  -3   3  -3 1284.23   59.13
   3   3   3 1115.34   48.96
  -3  -3  -3 1035.32   60.26
   3  -3   3 1023.78   52.87
   3  -3   3 1001.22   46.91
  -3  -3  -3  975.31   44.07
   3   3   4 1423.14   72.97
  -3  -3  -4 1681.16   82.94
   3   3   4 1684.24   68.25
  -3  -3  -4 1447.65   67.76
  -3   3  -4 2564.61   82.55
   3   3   4 1769.26   67.80
  -3   3  -4 2024.31   74.89
  -3   3  -4 2182.21   82.58
  -3  -3  -4 1754.20   67.16
   3  -3   4 1686.87   75.17
   3  -3   4 1725.27   71.04
  -3  -3  -5  955.04   44.70
   3   3   5 1169.29   60.95
  -3   3  -5 1208.60   55.93
   3   3   5  787.06   49.26
   3   3   5  914.85   43.98
  -3  -3  -5  903.68   56.80
  -3  -3  -5  833.66   43.64
  -3  -3  -5 1004.50   60.95
  -3   3  -5 1407.27   57.50
   3   3   5  934.06   42.90
  -3   3  -5 1131.48   50.05
   3   3   5  782.09   51.38
   3  -3   5 1009.42   49.80
   3  -3   5  924.61   51.17
  -3  -3  -6 1222.14   54.20
  -3   3  -6 1093.44   57.63
  -3  -3  -6 1365.85   76.76
  -3   3  -6 1435.97   59.64
  -3   3  -6 1060.12   54.51
   3   3   6 1549.29   72.81
  -3   3  -6 1491.69   63.85
   3   3   6 1010.69   58.86
  -3  -3  -6 1121.31   66.29
   3   3   6 1092.39   50.66
  -3  -3  -6 1227.45   69.90
  -3   3  -6 1704.52   65.68
  -3   3  -6 1357.05   57.28
   3   3   6  965.36   60.21
   3  -3   6 1135.89   58.19
  -3  -3  -7  350.20   37.72
  -3   3  -7  332.72   26.61
   3   3   7  441.32   36.49
  -3   3  -7  373.44   28.40
  -3   3  -7  244.98   27.75
   3   3   7  284.72   27.61
   3  -3   7  342.57   28.97
   3   3   7  324.26   26.74
  -3  -3  -7  305.37   32.76
   3   3   7  231.65   26.50
  -3  -3  -7  365.14   36.28
  -3  -3  -7  360.76   25.39
  -3   3  -7  277.93   25.75
  -3  -3  -8 2690.74  121.88
  -3   3  -8 2599.50   95.74
   3   3   8 1920.88   96.64
  -3   3  -8 2399.24   94.67
   3   3   8 3179.47  115.32
  -3   3  -8 2816.86   95.95
  -3   3  -8 1873.12   99.22
   3   3   8 2306.27   98.19
  -3  -3  -8 2078.55   84.54
  -3  -3  -8 2280.36  107.78
   3   3   8 1881.12   95.79
  -3  -3  -8 2301.66  108.60
  -3   3  -8 2010.70   91.48
  -3   3  -8 2036.36   95.15
   3  -3   8 2242.07   96.30
   3   3   8 2415.00   94.30
  -3   3  -9   98.05   16.45
  -3   3  -9  128.86   17.80
  -3  -3  -9  127.89   23.85
   3   3   9  163.86   23.01
  -3  -3  -9  109.42   17.71
  -3   3  -9   88.64   17.81
   3   3   9  133.08   18.73
   3   3   9  118.54   18.95
  -3  -3  -9  114.08   13.35
   3   3   9  110.14   18.56
   3   3   9  123.79   20.93
   3   3   9  100.88   17.29
  -3  -3  -9  105.04   18.69
  -3  -3  -9  112.49   20.26
  -3   3  -9  104.35   16.87
   3   3   9  147.36   17.34
   3  -3   9   99.54   16.24
  -3  -3 -10  431.48   44.25
  -3   3 -10  437.30   34.28
  -3   3 -10  464.00   37.43
   3   3  10  538.30   42.22
   3   3  10  415.14   36.44
   3  -3  10  414.07   34.74
   3   3  10  379.79   35.91
   3   3  10  395.52   38.79
   3   3  10  413.24   35.66
  -3  -3 -10  370.87   35.90
  -3  -3 -10  405.47   38.98
  -3   3 -10  370.70   32.70
  -3   3 -10  358.98   33.10
  -3   3 -10  330.80   32.49
  -3  -3 -10  471.67   36.76
  -3   3 -10  304.23   34.17
   3  -3  11  273.67   24.96
   3   3  11  307.41   29.70
   3  -3  11  249.25   26.55
   3   3  11  283.75   30.05
   3   3  11  276.17   31.53
   3   3  11  286.23   28.15
  -3  -3 -11  258.33   30.48
  -3  -3 -11  238.05   27.67
  -3   3 -11  230.33   24.85
  -3   3 -11  217.56   25.46
  -3   3 -11  202.22   26.78
  -3  -3 -11  291.64   35.25
  -3   3 -11  256.46   27.05
  -3   3 -11  253.59   25.41
  -3   3 -11  199.64   24.07
  -3  -3 -11  277.74   27.50
   3  -3  12  358.44   28.52
   3   3  12  449.51   34.33
   3   3  12  391.77   34.48
   3   3  12  351.36   35.01
  -3  -3 -12  330.60   32.61
  -3   3 -12  360.27   29.54
  -3  -3 -12  313.14   35.92
  -3   3 -12  375.64   31.78
  -3   3 -12  310.09   28.18
  -3   3 -12  299.36   30.20
   3  -3  12  365.70   32.03
  -3  -3 -12  363.69   30.34
  -3   3 -12  262.93   26.79
   3   3  13  104.21   16.33
  -3  -3 -13   71.45   14.43
   3  -3  13   90.15   13.50
   3   3  13  139.58   17.35
  -3   3 -13   76.18   14.11
  -3  -3 -13   97.15   18.04
  -3   3 -13  102.77   15.26
  -3  -3 -13   83.39   13.23
  -3   3 -13   50.44   10.56
  -3  -3 -14 1141.36   55.77
  -3   3 -14 1115.90   62.14
   3   3  14 1649.76   68.48
   3  -3  14 1324.19   59.15
   3   3  14 1327.70   64.76
   3   3  14 1690.97   62.28
  -3  -3 -14 1233.91   68.22
  -3  -3 -14 1407.75   66.61
  -3   3 -14 1324.95   61.83
  -3   3 -15  180.66   18.33
  -3   3 -15  225.07   21.52
   3   3  15  283.43   22.71
  -3  -3 -15  204.45   21.46
  -3   3 -15  251.94   20.51
  -3  -3 -15  290.30   23.25
  -3  -3 -16    3.69    2.35
  -3  -3 -16    7.64    3.71
  -3  -3 -16   14.20    4.77
  -3   3 -16    6.32    2.95
   3   3  16   10.21    3.60
   3   5 -14  637.60   28.53
  -3  -5  14  679.45   31.52
  -3   5  14  445.16   26.16
  -3   5  14  478.75   27.14
   3  -5 -14  717.03   27.71
   3   5 -13  855.25   42.18
  -3   5  13 1127.01   41.81
   3   5 -13 1005.02   44.89
   3  -5 -13 1188.95   47.42
  -3  -5  13  946.94   46.64
  -3  -5  13 1107.63   46.06
  -3   5  13  713.83   41.56
   3  -5 -13 1168.07   43.95
   3  -5 -12  145.38   14.29
  -3   5  12  105.39   13.59
   3  -5 -12  143.79   15.59
  -3  -5  12  117.27   15.12
   3   5 -12  117.28   14.21
  -3  -5  12  128.09   14.69
  -3   5  12   82.57   13.14
  -3   5  12   93.63   13.06
   3   5 -12  127.10   14.38
  -3  -5  11  417.49   31.38
  -3   5  11  340.39   29.31
   3   5 -11  387.24   26.72
   3  -5 -11  440.50   26.07
   3  -5 -11  488.39   32.61
   3  -5 -11  528.98   33.01
  -3  -5  11  461.02   33.60
   3   5 -11  458.98   32.09
  -3   5  11  325.10   27.62
  -3  -5  11  473.04   31.88
  -3   5  11  375.62   31.42
   3   5 -11  412.70   30.27
  -3  -5  10 1170.76   61.11
  -3  -5  10 1222.48   63.44
   3   5 -10 1102.05   53.93
  -3   5  10  984.54   58.76
   3  -5 -10 1516.29   65.13
   3  -5 -10 1232.21   53.25
   3  -5 -10 1409.17   64.38
   3   5 -10 1225.43   61.72
  -3   5  10  980.74   59.96
  -3  -5  10 1261.73   61.05
  -3   5  10 1023.94   56.76
   3   5 -10 1028.97   57.56
   3  -5  -9   29.05    6.16
  -3   5   9   39.70    9.59
  -3  -5   9   27.99    9.69
  -3  -5   9   29.73    9.13
   3  -5  -9   41.42    7.71
  -3   5   9   25.61    8.75
   3   5  -9   28.37    7.58
   3  -5  -9   36.54   10.04
   3  -5  -9   30.17    7.77
   3   5  -9   29.79    7.05
  -3  -5   9   26.21    7.69
  -3   5   9   23.04    7.29
   3  -5  -9   32.61    8.31
  -3  -5   9   28.68    8.87
  -3   5   8 1010.85   60.86
  -3  -5   8 1195.52   61.64
  -3   5   8 1053.64   56.69
  -3  -5   8 1090.37   56.52
  -3  -5   8 1138.37   64.02
   3  -5  -8 1262.33   62.96
  -3  -5   8 1126.97   62.09
  -3   5   8 1003.72   60.15
   3   5  -8 1014.81   48.61
   3   5  -8 1028.31   53.80
   3  -5  -8 1361.27   66.54
   3  -5  -8 1247.11   57.06
   3   5  -8 1117.96   61.02
   3  -5  -8 1152.18   50.37
  -3   5   8  810.19   51.97
   3  -5  -8 1170.48   57.00
   3   5  -7 1532.84   82.59
   3   5  -7 1970.73   87.10
  -3   5   7 2041.93   75.15
  -3  -5   7 1804.88   80.40
  -3  -5   7 2038.40   91.82
   3  -5  -7 2124.24   88.96
  -3  -5   7 1933.90   88.70
  -3   5   7 1806.94   83.34
  -3   5   7 1713.68   85.43
   3  -5  -7 2160.72   83.77
  -3  -5   7 1938.19   85.92
  -3   5   7 1665.53   77.62
  -3   5   7 1825.98   87.55
   3  -5  -7 2085.05   79.63
  -3   5   7 1510.58   77.38
   3   5  -6  224.63   25.80
   3   5  -6  299.66   27.90
  -3   5   6  329.25   23.43
  -3  -5   6  297.54   27.68
  -3   5   6  285.61   28.56
  -3  -5   6  267.89   24.78
  -3  -5   6  282.75   29.22
  -3  -5   6  247.03   26.84
   3   5  -6  265.23   24.05
  -3   5   6  275.98   27.03
   3   5  -6  302.47   24.98
   3  -5  -6  276.89   25.13
   3  -5  -6  255.21   23.62
  -3   5   6  213.32   22.52
  -3   5   5  925.18   52.96
   3   5  -5 1173.15   60.41
  -3   5   5 1149.50   52.08
  -3  -5   5 1065.52   48.13
   3   5  -5  945.60   58.20
  -3   5   5 1168.33   62.35
   3   5  -5 1121.57   55.21
  -3  -5   5 1199.64   64.54
  -3  -5   5 1146.12   62.64
   3   5  -5 1051.25   54.18
  -3   5   5 1176.98   61.47
   3   5  -5 1135.33   56.06
   3  -5  -5 1270.56   60.64
   3  -5  -5 1186.27   59.26
  -3  -5   5 1051.38   55.52
  -3   5   4 1492.98   73.32
  -3   5   4 1827.05   73.55
  -3  -5   4 1762.41   70.66
   3  -5  -4 2169.31   89.97
   3   5  -4 1814.89   85.65
   3   5  -4 1556.69   80.18
  -3   5   4 1637.73   81.55
  -3   5   4 1839.19   82.95
   3   5  -4 1921.93   79.32
  -3  -5   4 1994.06   88.21
  -3  -5   4 1852.60   85.27
  -3   5   4 1824.72   82.70
   3   5  -4 1852.53   77.13
  -3   5   4 1846.71   84.23
   3   5  -4 1880.34   78.97
   3  -5  -4 1855.02   82.69
  -3  -5   4 1819.08   78.36
   3  -5  -4 2124.01   89.16
   3   5  -4 1742.25   74.84
  -3   5   3   34.95    7.88
  -3  -5   3   27.03    6.68
  -3  -5   3   29.47    9.29
   3   5  -3   32.85    9.99
   3  -5  -3   47.82   11.52
  -3   5   3   27.37    8.68
   3   5  -3   34.08    9.37
  -3   5   3   41.32    9.85
   3   5  -3   32.52    7.89
   3   5  -3   35.87    8.76
  -3  -5   3   27.44    9.75
  -3  -5   3   31.58    9.76
  -3   5   3   28.22    8.67
  -3   5   3   34.70    9.51
   3   5  -3   28.88    7.59
  -3   5   3   25.38    7.00
   3  -5  -3   23.45    8.54
   3   5  -3   24.32    7.14
  -3  -5   3   48.74   10.12
  -3   5   2  803.00   42.28
  -3  -5   2  852.20   43.12
  -3  -5   2  865.88   51.89
   3  -5  -2  945.94   52.59
   3   5  -2  854.21   55.41
  -3  -5   2  862.93   51.77
   3   5  -2  765.62   47.33
  -3   5   2  769.60   50.42
  -3   5   2  912.33   48.68
   3   5  -2  831.14   46.76
   3   5  -2  846.01   47.27
  -3  -5   2  904.72   53.12
   3   5  -2  746.04   42.08
  -3   5   2  928.25   51.03
  -3   5   2  817.28   48.31
  -3   5   2  792.20   50.28
  -3  -5   2  743.77   41.94
   3   5  -2  828.95   46.12
  -3   5   2  681.45   40.60
   3  -5  -2  889.87   51.38
   3   5  -2  779.63   45.85
  -3  -5   1 1771.65   72.94
  -3  -5   1 1999.86   86.49
  -3  -5   1 1991.74   86.50
   3  -5  -1 1876.57   81.13
   3   5  -1 1937.81   90.02
   3  -5  -1 1879.43   78.47
   3   5  -1 1659.30   77.02
   3   5  -1 1763.76   78.90
  -3   5   1 1689.80   74.31
   3   5  -1 1606.69   72.52
  -3  -5   1 2051.99   76.21
   3  -5  -1 1855.60   80.80
   3   5  -1 1566.02   75.69
  -3  -5   1 1926.79   84.74
   3   5  -1 1645.69   70.92
  -3   5   1 1922.48   81.86
  -3   5   1 1930.23   80.37
   3   5  -1 1831.85   77.14
  -3   5   1 1714.63   81.54
  -3  -5   1 1589.39   70.85
  -3   5   1 1593.26   70.47
   3   5  -1 1568.61   71.23
  -3  -5   0  195.62   18.99
   3  -5   0  157.93   18.09
   3   5   0  175.19   22.81
  -3  -5   0  244.40   25.93
  -3  -5   0  226.93   25.10
   3  -5   0  184.37   20.52
   3   5   0  169.06   18.92
   3   5   0  174.34   19.62
   3   5   0  167.13   20.38
   3   5   0  187.09   20.06
  -3  -5   0  211.74   23.35
   3   5   0  166.99   18.59
   3   5   0  172.06   16.91
  -3   5   0  190.69   20.28
  -3   5   0  185.13   21.78
   3   5   0  183.06   19.19
  -3  -5   0  173.73   17.84
  -3   5   0  165.49   17.32
  -3  -5   0  224.98   20.11
   3   5   0  168.86   19.91
  -3   5  -1  483.81   32.38
  -3   5  -1  478.92   31.97
  -3   5  -1  605.40   31.99
  -3  -5  -1  571.26   35.13
   3  -5   1  516.90   34.21
   3  -5   1  527.67   36.15
  -3  -5  -1  697.31   45.99
  -3  -5  -1  640.92   44.51
   3   5   1  590.98   43.01
   3   5   1  515.96   34.15
  -3   5  -1  581.85   40.74
   3   5   1  518.52   36.82
   3   5   1  527.45   38.55
   3   5   1  561.38   36.42
  -3  -5  -1  640.02   41.95
   3   5   1  484.46   33.78
   3   5   1  548.25   31.48
  -3   5  -1  553.72   36.04
   3   5   1  551.98   35.02
  -3  -5  -1  517.26   33.39
   3   5   1  494.59   35.69
   3   5   1  543.63   38.10
  -3  -5  -1  628.75   36.14
  -3   5  -2 1085.51   55.53
  -3   5  -2 1092.02   54.99
  -3   5  -2 1524.16   57.85
  -3  -5  -2 1375.08   69.84
   3   5   2 1429.34   70.49
   3  -5   2 1152.07   57.21
  -3   5  -2 1376.25   66.98
   3   5   2 1215.39   65.03
   3   5   2 1084.19   60.92
   3   5   2 1237.85   59.34
  -3  -5  -2 1621.82   71.07
   3   5   2 1145.26   60.01
  -3   5  -2 1521.58   67.31
   3   5   2 1319.64   53.49
   3   5   2 1234.25   57.56
  -3   5  -2 1300.90   64.73
   3   5   2 1083.36   60.57
   3  -5   2 1164.97   57.82
   3  -5   2 1189.34   59.19
   3   5   2 1141.04   61.45
  -3   5  -3  225.63   21.34
  -3  -5  -3  294.67   24.16
  -3   5  -3  214.79   18.64
   3   5   3  283.28   28.37
  -3  -5  -3  264.27   27.56
   3   5   3  249.36   25.52
   3   5   3  257.91   26.32
   3   5   3  236.59   21.87
  -3  -5  -3  314.01   28.58
  -3  -5  -3  260.20   23.70
   3   5   3  232.29   24.14
   3  -5   3  208.31   18.87
  -3   5  -3  298.36   26.30
  -3   5  -3  266.65   25.35
   3   5   3  230.56   20.60
  -3   5  -3  272.57   26.04
   3   5   3  214.19   23.49
   3  -5   3  240.59   22.22
  -3  -5  -4 1201.47   52.15
  -3   5  -4  805.05   48.12
   3   5   4  959.40   56.44
   3   5   4  942.99   48.77
  -3  -5  -4 1248.06   62.27
   3  -5   4  898.38   46.66
  -3  -5  -4 1016.22   51.72
   3   5   4  929.69   54.69
  -3   5  -4 1206.26   58.53
  -3   5  -4 1101.15   56.13
  -3  -5  -4 1186.75   53.98
  -3   5  -4  924.20   45.84
   3   5   4 1126.64   52.09
  -3   5  -4 1107.32   56.55
   3   5   4  861.34   53.47
   3  -5   4  902.98   49.72
   3   5   4  943.58   53.94
  -3  -5  -5 1905.07   73.95
  -3   5  -5 1487.93   66.71
  -3  -5  -5 2025.62   75.80
  -3   5  -5 1740.74   75.71
   3   5   5 1969.48   73.66
   3   5   5 1442.68   77.00
   3   5   5 1480.69   76.96
  -3  -5  -5 2056.96   85.25
  -3  -5  -5 1710.56   72.29
   3   5   5 1405.64   75.69
   3  -5   5 1455.61   67.84
  -3  -5  -5 2133.56   90.56
  -3   5  -5 2145.13   83.16
  -3   5  -5 1745.34   76.45
   3   5   5 1865.41   69.63
   3   5   5 1376.03   74.85
   3  -5   5 1499.75   71.55
   3   5   5 1482.44   74.31
  -3   5  -6  448.25   30.03
  -3  -5  -6  655.05   35.61
  -3   5  -6  549.73   34.54
  -3  -5  -6  616.95   41.38
   3  -5   6  459.48   31.27
  -3  -5  -6  668.99   45.37
   3   5   6  479.04   37.62
  -3   5  -6  680.04   41.37
  -3   5  -6  564.32   40.56
   3   5   6  453.68   36.42
   3   5   6  472.88   37.49
   3   5   6  444.90   35.73
   3   5   6  332.56   29.45
   3  -5   6  537.56   34.98
   3   5   6  457.15   34.25
   3  -5   7  256.28   23.33
   3   5   7  233.88   23.08
  -3  -5  -7  317.87   30.46
   3   5   7  217.82   24.69
   3   5   7  291.26   19.87
  -3   5  -7  288.04   28.12
  -3   5  -7  252.04   21.57
  -3  -5  -7  322.26   23.24
  -3   5  -7  266.92   21.82
   3  -5   7  252.01   22.13
   3   5   7  173.28   20.06
   3   5   7  229.72   24.44
  -3   5  -8 1016.53   56.89
   3  -5   8 1023.72   51.49
   3   5   8 1005.29   51.09
   3  -5   8 1004.05   54.42
   3  -5   8  852.96   46.90
  -3  -5  -8 1110.25   47.15
  -3   5  -8  892.64   46.99
  -3  -5  -8 1111.54   60.23
   3   5   8  781.08   51.45
  -3  -5  -9  250.89   20.35
  -3   5  -9  254.92   21.17
  -3  -5  -9  242.19   25.70
   3  -5   9  219.19   20.31
   3   5   9  223.01   22.97
  -3   5  -9  242.83   25.64
  -3   5  -9  258.04   25.50
   3   5   9  208.70   22.97
  -3  -5 -10  147.00   18.52
   3  -5  10  126.54   14.56
   3   5  10  139.18   16.69
  -3   5 -10  140.02   18.10
  -3   5 -10  110.97   14.53
  -3  -5 -10  142.28   14.60
  -3   5 -10  114.02   13.40
   3   5  11  882.47   39.32
  -3  -5 -11  859.48   45.40
   3  -5  11  741.76   37.91
   3   5  11  601.80   37.26
   3   5  11  852.53   42.33
  -3   5 -11  776.36   43.44
  -3   5 -11  626.22   37.01
  -3   5 -11  691.79   36.40
  -3  -5 -11  904.06   39.60
  -3   5 -11  962.64   50.50
  -3   5 -12  469.93   29.89
  -3  -5 -12  437.93   22.38
   3   5  12  400.33   24.97
   3   5  12  438.34   21.57
  -3  -5 -12  382.79   25.25
   3   5  12  446.93   24.42
   3   5  12  327.22   21.71
   3  -5  12  335.68   20.39
  -3   5 -12  348.63   23.65
  -3  -5 -12  370.84   21.35
   3  -5  13   56.38    7.30
  -3   5 -13   81.31   10.83
  -3  -5 -13   77.90    8.12
   3   5  13   60.89    8.11
   3   5  13   81.55    8.89
  -3  -5 -13   70.25    7.91
  -3  -5 -13   72.48    9.47
   3   7  -8  140.42   11.77
   3  -7  -8  128.44    9.83
   3   7  -8  121.88   10.40
  -3  -7   8  138.46   10.90
  -3  -7   8  125.65    9.89
  -3   7   8  137.04    8.19
  -3   7   7 1329.74   43.83
  -3   7   7 1288.43   52.58
   3  -7  -7 1247.18   45.26
   3   7  -7 1259.09   48.30
   3   7  -7 1231.17   49.17
  -3  -7   7 1322.25   49.06
  -3  -7   7 1339.83   48.03
  -3  -7   7 1324.70   46.65
   3  -7  -7 1113.25   42.29
   3   7  -6   13.10    3.49
   3  -7  -6    9.54    3.27
   3   7  -6   10.58    2.97
  -3   7   6   10.46    4.19
   3  -7  -6    9.51    2.63
   3  -7  -6   12.45    3.29
   3   7  -6   10.38    3.67
  -3  -7   6   10.15    3.08
  -3  -7   6   12.78    3.74
  -3  -7   6   11.11    3.67
   3  -7  -6    8.18    2.52
  -3   7   6   11.52    2.78
   3   7  -5 1096.55   44.54
   3  -7  -5 1209.55   46.57
  -3   7   5 1236.37   52.56
   3   7  -5 1050.98   44.47
   3  -7  -5 1233.70   45.83
   3  -7  -5 1070.97   41.94
   3   7  -5 1112.47   47.95
  -3  -7   5 1164.32   44.75
  -3  -7   5 1198.40   48.06
  -3  -7   5 1175.30   47.02
   3  -7  -5 1087.26   43.00
  -3   7   5 1169.35   42.81
   3   7  -4  395.32   21.93
  -3  -7   4  406.12   21.83
   3  -7  -4  422.32   23.46
   3   7  -4  351.81   22.05
  -3   7   4  448.72   27.85
   3  -7  -4  377.98   20.36
   3   7  -4  411.84   25.29
  -3  -7   4  420.08   24.68
  -3  -7   4  419.46   24.10
  -3   7   4  390.60   20.56
  -3  -7   4  381.36   19.03
   3  -7  -4  376.18   21.16
   3   7  -3  142.89   12.29
  -3  -7   3  150.48   12.34
   3  -7  -3  149.10   13.32
   3   7  -3  141.89   13.34
  -3   7   3  154.31   15.58
   3  -7  -3  140.76   11.76
   3   7  -3  137.19   14.35
  -3  -7   3  163.85   14.38
  -3  -7   3  150.53   14.22
  -3  -7   3  161.11   11.75
  -3   7   3  153.20   12.04
  -3  -7   2  112.90   10.60
  -3   7   2  106.16   10.22
   3   7  -2  111.28   12.03
  -3   7   2  120.44   13.51
  -3   7   2  137.66   15.33
   3   7  -2  115.88   12.86
   3  -7  -2  109.59   10.53
   3   7  -2  109.40   12.65
  -3  -7   2  129.41   12.92
   3   7  -2  132.61   11.64
  -3  -7   2  121.40   10.46
   3  -7  -2  111.46   11.04
  -3  -7   1 1028.76   42.71
  -3   7   1  976.20   42.13
  -3   7   1 1103.99   46.96
  -3   7   1 1292.34   55.31
   3   7  -1 1103.91   48.64
   3   7  -1 1051.90   47.38
   3  -7  -1 1008.11   44.38
  -3  -7   1 1056.94   46.71
   3   7  -1 1195.84   44.81
  -3  -7   1 1101.14   42.85
   3  -7  -1 1020.30   43.77
  -3  -7   0   12.38    3.57
  -3  -7   0    2.00    1.32
   3   7   0   17.18    4.71
   3   7   0   14.29    3.89
   3   7   0   13.10    4.36
   3   7   0   20.77    5.17
   3  -7   0   13.35    4.17
   3  -7   0   11.91    3.92
  -3  -7   0   17.31    4.15
  -3   7   0   13.34    3.79
  -3   7  -1  486.31   26.08
   3   7   1  517.37   28.53
   3   7   1  524.31   29.38
   3   7   1  512.32   28.89
  -3   7  -1  544.17   31.30
   3   7   1  579.09   29.00
   3  -7   1  512.27   27.64
  -3  -7  -1  523.17   25.76
  -3  -7  -1  562.33   27.33
   3  -7   1  502.18   26.37
   3   7   2  433.68   24.98
  -3   7  -2  506.81   30.85
   3   7   2  490.52   26.51
   3   7   2  473.88   25.03
  -3   7  -2  468.73   28.24
   3  -7   2  404.30   24.21
  -3  -7  -2  508.32   27.56
  -3  -7  -2  469.03   24.29
   3  -7   2  405.13   22.77
   3   7   3  197.66   15.03
   3   7   3  251.20   16.77
  -3   7  -3  224.23   17.85
   3   7   3  237.14   15.54
   3  -7   3  200.51   14.47
   3  -7   3  196.96   15.46
   3  -7   3  194.75   13.77
  -3  -7  -3  216.34   16.66
  -3  -7  -4   51.75    7.66
   3   7   4   47.84    6.50
   3   7   4   53.50    8.13
   3   7   4   52.39    6.74
   3   7   4   56.14    6.65
  -3   7  -4   48.62    7.59
   3  -7   4   40.21    5.86
   3  -7   4   49.72    7.19
   3  -7   4   53.29    6.01
  -3  -7  -4   52.11    6.64
   3   7   5 1335.19   46.94
   3   7   5 1194.21   51.08
  -3   7  -5 1251.72   49.74
   3  -7   5 1277.77   49.38
   3  -7   5 1218.38   46.92
   3  -7   5 1168.77   43.24
  -3  -7  -5 1416.45   48.11
  -3  -7  -5 1450.06   51.72
   3   7   5 1289.91   50.66
   3   7   6   11.04    3.48
   3  -7   6    8.17    2.83
   3  -7   6    7.51    2.45
  -3   7  -6   12.66    4.11
  -3  -7  -6    9.79    3.24
   3   7   6   10.96    3.33
  -3   7  -7  192.17   14.35
   3  -7   7  216.72   13.86
   3  -7   7  188.69   12.04
   3   7   7  214.99   14.57
  -3  -7  -7  230.32   15.07
   3  -7   8  354.10   17.26
   3   7   8  364.61   18.46
   4   0 -18  235.97   18.30
  -4   0  18  253.77   20.84
  -4   0  18  170.65   18.35
  -4   0  18  189.68   19.95
   4   0 -17    0.65    2.71
  -4   0  17   -0.83    2.94
  -4   0  17    0.99    4.14
  -4   0  17    1.77    4.65
   4   0 -16 2559.61   94.90
  -4   0  16 2609.82   92.39
  -4   0  16 1792.62   92.17
  -4   0  16 1502.28   91.74
   4   0 -15    0.69    3.62
   4   0 -15    2.95    4.69
  -4   0  15   -1.43    6.79
  -4   0  15    8.64    7.33
  -4   0  15    3.55    3.98
  -4   0  14  273.95   31.23
  -4   0  14  185.19   29.11
  -4   0  14  297.95   28.98
   4   0 -14  318.10   26.51
   4   0 -14  315.29   31.20
  -4   0  14  255.79   25.95
  -4   0  14  221.92   29.23
   4   0 -14  333.58   35.74
  -4   0  14  279.11   32.49
   4   0 -13    4.03    3.17
  -4   0  13    1.53    5.97
   4   0 -13    2.35    3.93
   4   0 -13    2.33    4.53
  -4   0  13    6.86    6.89
  -4   0  13    3.08    3.99
  -4   0  13    1.33    4.24
  -4   0  13    7.63    6.69
   4   0 -12 1256.97   54.14
  -4   0  12 1040.75   72.55
  -4   0  12 1178.60   64.98
   4   0 -12 1277.54   60.68
  -4   0  12 1138.06   71.63
   4   0 -12 1186.14   61.51
   4   0 -12 1282.65   55.37
  -4   0  12 1167.24   70.54
  -4   0  11    3.34    2.79
   4   0 -11    4.42    2.91
  -4   0  11    1.21    5.08
   4   0 -11    2.90    2.91
  -4   0  11   -0.65    2.31
   4   0 -11    0.98    4.10
   4   0 -11    2.93    3.86
  -4   0  11   -1.30    6.21
   4   0 -11   -0.80    2.83
  -4   0  11    2.92    4.09
  -4   0  11    1.20    5.05
   4   0 -11    2.07    2.01
   4   0 -10 2448.09   96.51
  -4   0  10 2509.05  112.73
   4   0 -10 2408.36   90.03
  -4   0  10 2516.95  109.79
   4   0 -10 2249.43   87.62
  -4   0  10 2470.44  102.66
   4   0 -10 2614.16  106.52
   4   0 -10 2528.23   95.55
   4   0 -10 2577.39   90.26
  -4   0  10 2278.10   88.77
  -4   0  10 2148.59  104.36
  -4   0   9    8.16    5.61
  -4   0   9   -0.86    4.09
   4   0  -9    2.03    3.04
  -4   0   9    4.27    5.09
   4   0  -9    6.37    3.67
   4   0  -9    3.09    3.40
   4   0  -9    7.57    3.34
   4   0  -9    8.53    5.83
   4   0  -9    3.69    3.24
  -4   0   9    1.17    2.62
   4   0  -9    7.95    3.94
  -4   0   9    4.34    3.11
  -4   0   8   33.28    7.75
  -4   0   8   71.81   10.38
   4   0  -8   56.70   10.23
   4   0  -8   50.78    8.85
  -4   0   8   61.47   13.63
   4   0  -8   61.15    8.47
   4   0  -8   69.91   10.65
  -4   0   8  101.16   14.99
   4   0  -8   96.47   16.40
  -4   0   8   61.10   12.65
   4   0  -8   60.13   10.37
   4   0  -8   44.34    8.18
  -4   0   7    3.70    4.07
   4   0  -7    8.17    3.96
  -4   0   7   -0.92    5.05
   4   0  -7    3.50    3.63
   4   0  -7    5.17    3.50
  -4   0   7    5.02    4.79
   4   0  -7    5.43    5.56
   4   0  -7    2.37    2.98
   4   0  -7    4.04    3.30
  -4   0   7    4.02    3.38
  -4   0   7    2.86    2.72
  -4   0   6 3003.43  116.53
   4   0  -6 3295.77  115.80
   4   0  -6 3223.58  113.48
   4   0  -6 2891.54  113.51
   4   0  -6 3775.98  115.71
  -4   0   6 3914.90  118.94
   4   0  -6 3043.06  113.15
  -4   0   6 4140.49  128.85
  -4   0   6 3921.86  138.69
  -4   0   6 3673.84  128.93
   4   0  -6 3943.30  122.64
   4   0  -5    0.92    2.82
  -4   0   5   -0.45    3.38
   4   0  -5    1.40    2.66
  -4   0   5    7.27    5.29
   4   0  -4 3680.18  117.16
  -4   0   4 3923.07  134.16
   4   0  -3    7.55    2.80
  -4   0   3   13.89    8.45
   4   0  -3    2.03    4.43
   4   0  -3   11.23    6.38
  -4   0   2 1427.53   67.17
  -4   0   2 1284.81   53.86
  -4   0   2 1066.49   38.00
   4   0  -2 1118.24   44.44
   4   0  -2 1116.47   49.19
   4   0  -2 1346.29   57.81
  -4   0   1    6.64    7.91
  -4   0   1    2.86    5.05
   4   0  -1    4.15    3.26
   4   0  -1    1.77    3.43
  -4   0   0 3161.79  111.84
   4   0   0 2966.31   91.14
   4   0   0 2644.07   87.51
   4   0   0 2584.03   93.77
  -4   0  -1    1.76    5.02
   4   0   1    3.95    1.50
   4   0   1    1.03    2.16
   4   0   1    4.10    2.09
   4   0   1    1.64    2.53
   4   0   1    0.86    3.69
   4   0   2 3870.16  111.14
   4   0   2 4153.48  113.55
   4   0   3   11.90    2.60
  -4   0  -3    8.31    6.57
  -4   0  -4 2054.76   96.23
  -4   0  -4 2203.54  104.18
  -4   0  -5    7.72    6.85
  -4   0  -5   -1.00    6.13
  -4   0  -5   -1.16    5.84
   4   0   5    3.26    2.88
   4   0   6 9073.49  285.50
  -4   0  -6 8127.85  299.50
  -4   0  -6 8425.75  306.58
  -4   0  -7    9.17    6.90
   4   0   7    6.05    4.40
  -4   0  -8 2488.10  117.90
  -4   0  -8 3011.90  122.33
   4   0   8 4069.30  125.08
  -4   0  -8 3645.49  140.80
  -4   0  -8 3673.38  148.03
  -4   0  -9    2.72    4.56
  -4   0  -9    2.74    4.35
  -4   0  -9    2.93    2.94
   4   0   9    4.43    5.27
  -4   0  -9    1.73    3.62
  -4   0  -9    1.29    5.40
  -4   0  -9    6.05    8.98
  -4   0 -10 1842.38   92.84
   4   0  10 2102.94   92.32
  -4   0 -10 1787.52   98.30
  -4   0 -10 1564.97   77.33
  -4   0 -10 1286.45   72.43
  -4   0 -10 1375.89   73.97
   4   0  10 1916.28   77.78
   4   0  11    1.21    3.83
  -4   0 -11    1.72    6.10
  -4   0 -11    2.88    4.31
  -4   0 -11    3.40    7.13
  -4   0 -11    1.96    4.39
   4   0  11   -1.04    3.70
  -4   0 -11    2.86    6.43
   4   0  11    3.36    4.00
   4   0  12 3886.61  143.18
  -4   0 -12 3169.95  151.45
  -4   0 -12 2521.55  119.76
  -4   0 -12 2769.77  122.79
  -4   0 -12 3221.91  150.34
   4   0  12 3593.59  135.31
   4   0  12 3808.54  128.62
  -4   0 -12 3305.53  143.95
   4   0  13   10.53    5.57
  -4   0 -13    1.80    5.71
   4   0  13    6.40    4.79
  -4   0 -13    1.47    6.16
   4   0  13   -0.83    2.96
  -4   0 -13    0.89    3.18
  -4   0 -13    6.67    8.78
  -4   0 -13    3.64    5.01
  -4   0 -14  903.84   61.39
  -4   0 -14  788.03   46.68
  -4   0 -14  800.64   60.26
  -4   0 -15   11.59    7.36
  -4   0 -15    7.91    4.56
   4   0  15    5.79    4.55
  -4   0 -15    3.30    4.94
  -4   0 -16  571.33   42.03
   4   0  16 1062.66   51.69
   4   0  16 1055.43   47.49
  -4   0 -16  695.81   45.22
  -4   0 -17    0.75    3.74
   4   0  17    3.66    2.99
  -4   0 -17    0.50    2.49
   4   2 -17   56.75    8.79
   4  -2 -17   75.28    8.99
  -4  -2  17   56.67   10.25
   4   2 -17   95.02   10.85
  -4   2  17   46.61    9.71
  -4   2  17   81.08   12.19
  -4  -2  17   88.77   10.84
  -4  -2  16  990.54   55.70
   4   2 -16 1690.05   59.34
   4  -2 -16 1406.15   53.30
   4   2 -16 1137.03   52.49
  -4  -2  16 1326.97   57.16
  -4   2  16  839.74   57.11
  -4   2  16  540.35   47.25
  -4  -2  16 1226.85   63.41
  -4   2  16  981.75   56.02
  -4   2  15   10.56    7.23
  -4  -2  15   17.94    7.06
  -4   2  15   22.39    9.68
  -4   2  15   22.59    8.88
  -4   2  15   12.84    8.09
  -4  -2  15   14.95    7.97
  -4  -2  15   17.77    8.82
  -4   2  15   10.02    5.23
   4   2 -15   21.30    6.96
   4   2 -15   17.36    6.47
   4  -2 -15   23.19    6.69
   4   2 -14  346.09   28.77
   4   2 -14  234.89   24.10
   4  -2 -14  305.58   26.70
  -4   2  14  151.61   24.62
  -4  -2  14  261.77   30.53
  -4   2  14  245.56   29.06
  -4  -2  14  323.22   34.29
  -4   2  14  229.49   29.65
  -4  -2  14  295.89   29.84
  -4  -2  14  235.53   29.34
  -4   2  14  211.11   29.17
  -4  -2  14  292.03   28.52
  -4  -2  13  129.59   19.84
  -4   2  13   95.76   19.49
  -4   2  13  129.32   22.28
  -4   2  13   93.29   15.00
  -4   2  13   96.85   19.48
  -4  -2  13  111.47   20.67
  -4  -2  13  135.33   23.09
  -4   2  13  105.42   19.49
   4   2 -13   84.66   15.08
   4  -2 -13  119.19   17.26
   4  -2 -13  163.05   21.74
   4   2 -13   92.81   17.58
  -4  -2  13  140.58   21.43
  -4  -2  13   96.09   19.36
   4  -2 -12 1974.93   85.86
  -4   2  12 1738.19   75.09
  -4  -2  12 1420.30   83.57
  -4  -2  12 1411.21   84.25
  -4   2  12 1371.22   80.45
  -4   2  12 1367.55   83.48
   4  -2 -12 1681.56   76.89
  -4  -2  12 1616.94   80.70
  -4   2  12 1303.72   81.90
   4   2 -12 1753.27   67.06
   4  -2 -12 1546.02   68.20
   4  -2 -12 1761.61   78.72
   4  -2 -12 1478.76   80.70
   4  -2 -12 1815.51   78.76
   4   2 -12 1666.49   73.31
   4   2 -12 1309.00   71.44
  -4   2  12 1272.41   69.98
  -4  -2  12 1752.28   86.78
  -4  -2  12 1199.45   79.65
  -4   2  12 1150.11   74.66
  -4   2  11    4.69    4.47
   4  -2 -11    6.25    4.91
  -4   2  11    1.02    3.96
  -4  -2  11   -1.40    4.44
  -4  -2  11    2.74    5.33
  -4   2  11    1.37    5.75
   4  -2 -11    4.69    4.21
  -4  -2  11    8.84    7.65
  -4   2  11    7.62    6.37
  -4   2  11    5.39    6.42
   4   2 -11    2.44    2.91
  -4   2  11    2.46    4.31
   4  -2 -11    5.05    2.54
   4  -2 -11    5.17    4.23
   4  -2 -11    2.79    4.42
  -4   2  11    1.79    3.18
   4   2 -11    1.89    3.67
   4  -2 -11    9.97    5.93
   4  -2 -11    8.51    5.79
   4   2 -11    0.82    3.20
   4  -2 -11    4.87    3.13
  -4  -2  11    1.39    5.85
  -4  -2  11    2.55    4.96
  -4   2  11    4.72    4.59
  -4   2  10 1132.56   64.65
   4  -2 -10 1620.55   82.10
   4   2 -10 1489.52   69.36
  -4   2  10 1426.86   80.46
  -4  -2  10 1552.33   78.03
   4   2 -10 1388.23   63.45
   4  -2 -10 1570.56   62.45
  -4   2  10 1377.25   78.78
  -4   2  10 1132.15   64.68
   4   2 -10 1665.81   64.90
   4  -2 -10 1559.30   68.84
   4  -2 -10 1723.00   75.40
  -4   2  10 1423.27   73.12
  -4  -2  10 1457.58   82.96
  -4  -2  10 1485.54   83.36
   4  -2 -10 1718.98   75.15
  -4   2  10 1411.40   71.74
  -4  -2  10 1842.61   87.67
  -4  -2  10 1364.92   81.02
  -4   2  10 1240.87   72.00
  -4   2  10 1179.14   65.92
   4   2  -9  188.78   15.86
  -4   2   9  117.96   16.71
   4   2  -9  171.07   19.23
  -4   2   9  198.11   23.01
  -4  -2   9  156.22   23.95
  -4  -2   9  151.10   23.82
   4  -2  -9  162.42   16.62
   4   2  -9  151.79   16.30
  -4   2   9  163.74   22.99
  -4   2   9  130.64   17.58
   4  -2  -9  171.96   19.38
   4  -2  -9  153.24   19.26
   4  -2  -9  196.91   21.32
  -4  -2   9  176.94   22.60
  -4   2   9  152.58   22.32
  -4   2   9  114.37   16.06
  -4  -2   9  167.78   23.61
  -4  -2   9  168.53   24.94
  -4   2   9  141.84   19.90
   4  -2  -9  168.55   20.30
  -4   2   9  187.26   21.91
  -4   2   8  197.12   22.23
  -4  -2   8  182.30   25.34
  -4  -2   8  168.01   24.52
  -4   2   8  182.74   23.02
  -4   2   8  166.53   22.37
  -4  -2   8  175.87   22.36
  -4   2   8  157.29   21.88
   4  -2  -8  156.72   18.86
   4   2  -8  173.84   16.51
  -4   2   8  166.22   19.38
   4  -2  -8  158.87   18.72
   4  -2  -8  171.56   19.76
  -4   2   8  139.69   17.37
   4   2  -8  172.56   21.30
   4   2  -8  216.57   17.43
  -4   2   8  173.81   20.77
   4   2  -8  165.36   15.88
   4  -2  -8  166.43   19.77
  -4  -2   8  223.89   26.28
  -4  -2   8  162.67   24.41
  -4   2   8  152.64   19.47
  -4   2   8  142.75   16.53
   4   2  -7   56.13    8.88
  -4   2   7   73.90   13.14
  -4   2   7   81.84   14.18
  -4  -2   7   77.71   16.77
  -4  -2   7   50.08   13.35
   4   2  -7   80.80    9.46
  -4  -2   7   76.70   14.36
  -4   2   7   52.52   12.48
  -4   2   7   56.83   12.66
  -4  -2   7   56.05   10.16
  -4   2   7   63.43   13.27
   4  -2  -7   61.33   12.00
  -4   2   7   48.51   10.12
   4   2  -7   76.64   10.46
   4  -2  -7   66.10   12.10
   4   2  -7   88.12   10.79
   4  -2  -7   55.79   10.56
  -4   2   7   37.60    8.80
   4   2  -7   63.90    9.42
   4   2  -7   69.16   13.58
  -4  -2   7   50.71    9.26
   4  -2  -7   52.97   10.89
   4   2  -7   58.79    7.71
  -4  -2   7   48.25   13.85
  -4  -2   7   67.14   14.30
  -4   2   7   55.64   10.96
  -4   2   7   52.07    8.87
  -4   2   6 3277.21  111.41
   4   2  -6 2624.84   93.96
  -4  -2   6 2701.50  118.47
  -4  -2   6 2736.05  119.34
  -4   2   6 3421.21  115.66
  -4   2   6 3042.49  111.29
  -4   2   6 2917.86  109.74
  -4  -2   6 2927.80  112.86
  -4  -2   6 2669.16  100.93
   4   2  -6 2796.08   94.55
   4  -2  -6 2835.36  106.71
  -4   2   6 3076.70  111.94
   4   2  -6 2598.69   95.11
   4   2  -6 2757.50   95.87
  -4   2   6 2626.37  103.41
   4   2  -6 2920.78   96.96
   4  -2  -6 2804.61  101.55
   4  -2  -6 2810.68  106.73
  -4   2   6 2165.55   95.98
   4   2  -6 2673.67   95.44
  -4  -2   6 2304.46   95.82
   4  -2  -6 2848.51  105.98
   4   2  -6 2399.42   91.03
   4  -2  -6 2981.05  110.02
  -4  -2   6 3045.06  116.31
  -4   2   6 2619.71  101.97
   4   2  -6 2880.19  113.02
  -4   2   6 2558.37   91.95
   4   2  -5   50.96    7.67
  -4   2   5   58.94   11.54
  -4   2   5   82.24   13.33
  -4   2   5   61.22   11.56
  -4  -2   5   65.35   15.19
  -4  -2   5   47.76   13.11
  -4  -2   5   63.01   12.82
   4  -2  -5   49.84   10.47
  -4  -2   5   45.53   13.32
  -4   2   5   52.46   10.80
   4   2  -5   74.19    9.56
  -4   2   5   71.58   11.70
   4  -2  -5   53.49   10.96
   4   2  -5   55.35    8.68
   4   2  -5   55.89    8.65
   4   2  -5   71.03   13.82
   4  -2  -5   53.36   10.13
  -4  -2   5   47.75    8.87
   4  -2  -5   43.50    9.71
   4   2  -5   44.92    7.61
  -4  -2   5   47.84   11.06
  -4   2   5   64.54   10.32
  -4  -2   5   63.95   13.30
   4  -2  -5   53.98   10.74
  -4   2   5   54.60    6.53
   4   2  -4 3852.66  122.88
  -4  -2   4 3584.42  148.74
  -4   2   4 4495.00  139.81
  -4  -2   4 3952.64  142.54
   4  -2  -4 3798.08  135.77
  -4  -2   4 3649.47  151.27
   4   2  -4 3756.32  124.05
   4   2  -4 3830.62  124.65
  -4   2   4 4158.50  135.42
   4   2  -4 3712.34  125.42
   4   2  -4 3971.59  126.55
   4   2  -4 4308.77  148.03
   4  -2  -4 3875.71  131.75
   4   2  -4 4632.10  149.88
  -4  -2   4 3287.92  127.44
  -4   2   4 3637.30  139.84
  -4  -2   4 4675.33  143.07
  -4  -2   4 3772.64  142.69
   4  -2  -4 3821.44  135.68
  -4  -2   4 3614.23  138.85
  -4   2   4 3811.90  126.92
   4   2  -4 3160.33  123.22
  -4   2   3 1326.68   56.98
  -4  -2   3  982.58   63.11
  -4  -2   3 1048.26   57.76
   4   2  -3 1049.60   43.73
  -4  -2   3 1014.91   64.57
  -4   2   3 1184.58   53.11
   4   2  -3 1091.16   44.97
  -4   2   3 1240.35   55.16
   4   2  -3 1072.86   46.27
   4   2  -3 1014.13   45.57
   4  -2  -3 1039.28   48.02
   4   2  -3 1261.20   62.11
  -4   2   3 1034.18   57.09
  -4  -2   3 1221.91   55.72
   4   2  -3 1054.24   42.51
   4  -2  -3  995.23   51.94
  -4  -2   3 1078.64   58.50
  -4  -2   3 1074.71   59.06
  -4   2   3 1098.54   44.42
   4  -2  -3 1209.53   54.35
   4   2  -3  905.73   45.33
   4  -2  -2  104.64   14.68
  -4  -2   2  121.80   18.46
   4  -2  -2  120.56   14.38
  -4   2   2  123.50    9.85
   4   2  -2  105.42   12.38
  -4  -2   2  114.07   20.15
  -4   2   2  166.87   17.11
   4   2  -2  107.38   10.75
  -4   2   2  138.14   15.12
   4   2  -2  133.36   12.79
   4   2  -2  102.58   16.91
   4  -2  -2  118.04   12.34
  -4  -2   2  111.55   14.16
  -4   2   2  107.61   16.12
  -4  -2   2  102.75   20.25
  -4   2   2  145.60   16.28
   4   2  -2  119.57   10.03
   4   2  -1  121.97    9.59
  -4   2   1  177.41   17.68
   4   2  -1  121.61   12.21
   4   2  -1  128.17   12.36
  -4   2   1  116.90   16.40
  -4  -2   1  150.89   15.60
   4  -2  -1  120.11   11.86
  -4  -2   1  123.62   20.74
   4   2  -1  117.28   13.07
  -4  -2   1  138.65   13.82
   4  -2  -1  103.02   14.31
   4  -2  -1  118.02   14.07
   4  -2   0 3544.95  118.99
   4  -2   0 3363.96  119.32
   4  -2   0 3536.28  117.07
  -4  -2   0 3661.66  111.87
   4   2   0 3338.99  101.21
   4   2   0 3196.46  131.01
  -4   2  -1  199.13   18.86
  -4  -2  -1  156.03   15.87
  -4  -2  -1  147.45   19.96
   4   2   1  155.73    8.83
  -4  -2  -1  141.89    7.85
   4  -2   1  169.98   17.11
   4   2   1  122.64   13.77
  -4  -2  -1  135.20    8.79
   4  -2   1  177.21   16.38
   4  -2   1  190.18   18.19
  -4  -2  -1  196.17   16.49
  -4   2  -1   99.04   12.84
  -4  -2  -1  137.91   18.66
  -4   2  -2 2875.31   90.10
  -4  -2  -2 1634.50   83.36
  -4  -2  -2 1958.07   64.10
   4  -2   2 2199.92   68.87
  -4  -2  -2 1670.40   82.11
   4   2   2 1848.84   75.88
   4  -2   2 2151.98   77.66
   4  -2   2 2301.78   78.74
   4  -2   2 2138.43   68.97
  -4  -2  -2 2622.67   82.20
  -4   2  -2 1352.09   71.75
  -4   2  -3  167.95   17.83
   4   2   3  232.39   22.28
  -4  -2  -3  307.99   22.87
  -4  -2  -3  162.00   20.84
  -4  -2  -3  221.92   25.04
   4   2   3  310.23   25.85
   4  -2   3  285.94   15.65
  -4  -2  -3  224.87   13.70
   4   2   3  227.85   19.60
   4  -2   3  256.98   17.37
   4  -2   3  274.92   19.52
  -4  -2  -4  558.82   41.12
  -4  -2  -4  506.01   38.56
   4   2   4  604.03   38.64
   4  -2   4  606.93   31.56
   4  -2   4  576.84   29.87
  -4   2  -4  443.95   32.25
   4   2   4  550.91   37.48
  -4  -2  -4  708.12   37.81
  -4   2  -4  473.82   33.52
  -4  -2  -4  693.22   38.09
   4   2   5  892.20   40.78
  -4  -2  -5  875.47   55.56
   4   2   5 1060.76   55.92
  -4  -2  -5 1251.26   55.65
  -4   2  -5  864.95   50.45
  -4  -2  -5  861.04   54.35
   4  -2   5 1054.20   47.84
   4  -2   5  995.23   41.30
   4   2   5 1091.53   56.37
   4   2   6 6271.94  190.75
  -4  -2  -6 5549.40  191.28
  -4   2  -6 4395.09  188.03
   4   2   6 5562.11  185.71
  -4  -2  -6 4427.40  178.86
   4  -2   6 5412.09  174.48
  -4  -2  -6 5182.41  189.49
  -4   2  -7   60.52   10.39
  -4  -2  -7   57.36   16.03
  -4   2  -7   78.10   12.63
   4   2   7   80.25   14.99
  -4  -2  -7   63.09   14.85
  -4   2  -7   48.90   13.73
   4   2   7   69.88   13.59
  -4  -2  -7   45.70   11.08
  -4  -2  -7   35.10   10.17
   4   2   7   81.55   13.32
   4  -2   7   57.40   11.06
   4   2   8  911.39   47.86
   4  -2   8  686.05   43.05
  -4  -2  -8  789.91   52.91
  -4   2  -8  681.08   51.13
   4   2   8  740.89   47.89
  -4  -2  -8  578.41   44.61
  -4  -2  -8  559.00   41.23
  -4   2  -8  679.27   54.58
  -4  -2  -8  777.89   55.52
   4   2   8  930.22   54.18
  -4   2  -8  703.92   41.23
  -4  -2  -8  745.39   59.98
  -4   2  -8  743.89   43.68
  -4   2  -8  719.79   45.17
  -4   2  -8  587.10   39.31
  -4   2  -8  579.41   39.76
   4   2   9  506.52   34.31
   4  -2   9  408.87   32.91
  -4   2  -9  280.44   33.13
  -4  -2  -9  454.64   40.01
   4   2   9  405.63   34.26
  -4  -2  -9  345.65   33.67
  -4  -2  -9  307.00   30.09
  -4  -2  -9  404.04   40.34
  -4   2  -9  305.66   37.11
   4   2   9  555.72   41.64
  -4   2  -9  397.38   30.72
   4   2   9  456.07   36.28
  -4  -2  -9  396.73   44.18
  -4   2  -9  425.14   32.19
  -4   2  -9  343.96   31.01
  -4   2  -9  313.86   27.66
  -4   2  -9  361.32   30.66
   4   2  10  600.73   42.49
   4  -2  10  517.97   38.52
  -4  -2 -10  553.55   45.71
  -4   2 -10  453.09   42.45
   4   2  10  577.10   49.24
   4   2  10  551.84   40.32
  -4  -2 -10  399.55   35.74
  -4  -2 -10  557.25   48.46
  -4   2 -10  444.50   45.32
   4   2  10  670.82   46.86
  -4   2 -10  475.09   37.02
  -4  -2 -10  518.85   51.28
  -4   2 -10  449.69   34.19
  -4   2 -10  407.46   32.61
  -4   2 -10  418.00   34.85
  -4   2 -11   80.95   13.93
  -4  -2 -11  109.92   23.18
  -4   2 -11   95.74   15.91
   4   2  11  163.46   22.73
  -4   2 -11   81.21   18.90
  -4  -2 -11  104.10   20.98
   4   2  11  118.96   18.20
   4  -2  11  122.15   18.24
   4   2  11  113.04   18.71
   4   2  11  104.70   20.43
   4   2  11  119.00   17.55
  -4  -2 -11   65.08   14.07
  -4  -2 -11  135.06   22.09
  -4   2 -11   75.96   13.21
  -4   2 -11   78.49   14.75
  -4   2 -11   69.91   16.14
   4   2  12 4126.59  133.99
   4  -2  12 3334.36  131.45
   4   2  12 3953.81  139.57
   4   2  12 3732.76  149.13
  -4  -2 -12 3063.96  139.90
  -4   2 -12 2544.33  135.33
   4   2  12 4250.83  142.74
  -4   2 -12 2725.59  124.83
  -4   2 -12 3209.37  126.98
  -4  -2 -12 3221.73  131.53
  -4   2 -12 2598.51  129.41
  -4  -2 -12 3339.76  139.45
   4   2  13   59.56   14.83
  -4   2 -13   44.66   10.52
  -4  -2 -13   48.99   12.15
   4   2  13   53.32   12.30
   4  -2  13   49.94   11.17
   4   2  13   46.15   11.37
   4   2  13   59.88   12.41
  -4   2 -13   26.08    9.53
  -4   2 -13   28.57    9.58
  -4  -2 -13   47.57   12.31
  -4   2 -14  429.57   35.08
  -4  -2 -14  473.29   36.76
  -4   2 -14  470.63   33.78
  -4   2 -14  468.17   36.23
   4   2  14  579.40   39.07
   4  -2  15  304.42   24.18
   4   2  15  329.60   25.70
  -4   2 -15  233.27   21.18
  -4  -2 -15  233.61   21.88
  -4  -2 -15  233.43   20.11
  -4  -2 -16  506.98   27.08
  -4  -2 -16  583.79   32.32
  -4   2 -16  483.08   28.83
  -4   2 -16  404.56   30.94
  -4  -2 -16  484.03   30.72
   4   2  16  673.48   33.21
   4  -2  16  559.73   30.80
   4   2  16  611.65   33.82
  -4   4  15  141.15   15.76
  -4  -4  15  237.52   19.30
  -4   4  15  169.18   15.94
   4   4 -15  301.82   21.13
   4   4 -15  193.77   15.37
  -4  -4  15  213.03   17.37
   4  -4 -15  250.79   16.61
  -4  -4  15  225.79   19.05
   4   4 -14  132.44   13.98
  -4  -4  14  102.52   13.69
   4  -4 -14  114.69   12.64
  -4   4  14   83.09   13.64
  -4  -4  14  108.41   14.75
   4   4 -13  632.96   34.59
   4  -4 -13  872.60   44.40
  -4   4  13  857.69   41.63
   4   4 -13  802.87   42.86
  -4  -4  13  692.43   44.78
  -4   4  13  528.77   41.23
   4  -4 -13  715.45   39.52
   4  -4 -12  333.37   27.79
   4  -4 -12  285.75   22.70
  -4   4  12  224.99   26.03
  -4   4  12  239.27   26.56
  -4  -4  12  222.59   25.88
   4   4 -12  338.76   28.22
   4   4 -12  230.97   20.07
  -4   4  12  191.88   22.34
   4  -4 -12  291.85   19.35
  -4   4  12  194.18   21.33
  -4   4  11   18.24    7.81
  -4   4  11   24.30    7.30
   4   4 -11   29.03    7.40
  -4   4  11   10.27    6.32
   4  -4 -11   17.09    5.41
   4  -4 -11   18.87    7.69
   4  -4 -11   14.02    5.80
  -4   4  11   13.18    6.76
  -4  -4  11   10.44    7.38
   4   4 -11    8.32    6.07
  -4  -4  11   21.46    8.35
   4  -4 -11   12.51    5.42
  -4   4  11    7.87    5.02
  -4  -4  10 1243.10   72.14
  -4   4  10  897.38   56.19
   4  -4 -10 1166.51   55.82
  -4   4  10 1098.46   64.98
   4   4 -10 1219.54   57.65
   4  -4 -10 1530.40   68.05
   4  -4 -10 1623.30   72.88
   4  -4 -10 1249.86   60.60
  -4   4  10 1108.86   66.49
  -4  -4  10 1191.11   70.46
  -4   4  10 1083.40   64.85
   4   4 -10 1435.10   70.25
  -4  -4  10 1202.96   68.32
  -4   4  10  889.88   57.05
   4  -4 -10 1290.61   62.93
  -4  -4   9  330.80   35.39
   4  -4  -9  321.98   27.40
  -4   4   9  369.36   34.14
   4   4  -9  380.40   28.72
   4   4  -9  380.54   26.59
   4  -4  -9  432.42   34.15
   4  -4  -9  383.58   31.04
  -4   4   9  384.80   35.77
  -4  -4   9  351.61   36.06
  -4   4   9  391.70   34.75
   4  -4  -9  387.69   32.89
   4  -4  -9  388.33   31.84
  -4  -4   9  349.72   34.44
  -4   4   9  298.29   28.17
  -4   4   8    8.34    4.89
   4   4  -8   12.39    4.31
  -4   4   8   37.71   10.45
  -4  -4   8    9.07    7.70
   4  -4  -8   12.56    7.44
   4   4  -8   16.43    6.22
  -4   4   8   11.71    6.33
   4  -4  -8   10.66    5.99
   4   4  -8   12.34    5.06
   4  -4  -8   36.03    9.87
  -4  -4   8   12.64    8.03
   4  -4  -8    9.24    5.50
   4  -4  -8    9.62    5.56
  -4   4   8   20.72    6.84
  -4  -4   8    8.24    6.75
  -4   4   7  958.45   57.67
   4   4  -7 1162.91   54.16
   4  -4  -7 1171.43   65.22
  -4  -4   7 1157.67   70.81
  -4   4   7 1067.26   62.77
   4   4  -7 1322.91   58.16
   4  -4  -7 1358.60   67.08
   4  -4  -7 1156.73   61.39
  -4  -4   7 1125.12   68.24
  -4   4   7 1163.64   61.60
   4  -4  -7 1188.14   61.57
   4   4  -7 1194.47   61.25
   4  -4  -7 1083.89   58.77
  -4  -4   7 1184.31   68.62
  -4   4   7  929.27   52.93
  -4   4   6 1106.48   60.64
   4  -4  -6 1187.38   61.48
   4   4  -6 1274.02   62.58
  -4  -4   6 1090.30   67.78
  -4   4   6 1142.47   60.42
  -4   4   6 1263.88   67.81
   4   4  -6 1276.47   57.88
   4  -4  -6 1290.44   69.05
  -4  -4   6 1214.01   72.53
  -4   4   6 1126.40   63.41
  -4   4   6 1221.40   65.46
   4   4  -6 1364.64   60.68
   4  -4  -6 1198.73   63.29
   4  -4  -6 1045.51   60.04
  -4  -4   6 1267.10   71.04
  -4   4   5   12.26    5.96
  -4  -4   5   11.74    4.50
   4   4  -5   25.33    9.58
   4   4  -5   15.27    6.05
   4   4  -5    9.96    5.85
   4  -4  -5    9.43    5.45
  -4   4   5   24.10    8.39
   4   4  -5   10.94    5.11
  -4   4   5   14.26    5.97
  -4  -4   5    7.57    7.23
   4  -4  -5   19.27    8.33
  -4   4   5   13.44    6.83
   4   4  -5   10.56    4.93
   4   4  -5   29.00    7.71
   4  -4  -5   10.57    6.30
  -4   4   4 1801.74   82.82
   4   4  -4 1908.83   81.58
   4  -4  -4 1970.68   83.02
  -4  -4   4 1962.53   77.26
   4   4  -4 1931.33   81.17
   4  -4  -4 2115.05   91.65
   4   4  -4 2181.98  100.84
  -4   4   4 2093.22   89.49
  -4  -4   4 2052.70   95.09
  -4   4   4 1906.23   80.15
   4   4  -4 1806.26   77.80
   4   4  -4 2100.42   83.08
  -4  -4   4 2047.96   99.04
   4  -4  -4 2094.39   94.63
  -4   4   4 2198.44   92.42
   4   4  -4 1998.99   79.93
  -4  -4   4 2158.42   76.83
  -4   4   4 2043.64   89.14
   4   4  -4 2094.73   83.50
   4  -4  -4 1784.31   86.99
  -4  -4   4 1860.11   81.45
  -4   4   3  623.07   39.95
   4  -4  -3  651.05   39.07
  -4  -4   3  681.11   37.58
  -4  -4   3  612.25   39.72
   4  -4  -3  794.18   48.25
   4   4  -3  735.59   53.34
  -4   4   3  614.07   43.65
  -4   4   3  762.72   45.47
  -4  -4   3  795.24   51.51
   4   4  -3  648.53   39.21
   4   4  -3  680.94   39.96
  -4  -4   3  816.58   55.05
  -4   4   3  744.23   46.25
  -4   4   3  743.88   45.41
   4   4  -3  713.56   38.61
   4   4  -3  601.96   35.89
  -4  -4   3  677.08   40.93
   4  -4  -3  675.51   46.84
  -4   4   2   67.74   11.64
   4  -4  -2   66.38   10.75
  -4   4   2   51.99    9.22
  -4  -4   2   72.03   10.95
   4  -4  -2   66.08   12.18
   4   4  -2   58.75   14.88
  -4  -4   2   62.71   11.69
   4   4  -2   77.91   13.64
   4   4  -2   54.51   10.28
   4  -4  -2   70.07   13.96
  -4  -4   2   86.73   16.19
  -4   4   2   66.90   12.39
   4   4  -2   65.62   11.66
   4   4  -2   87.78   12.96
  -4  -4   2   78.07   16.91
  -4   4   2   82.22   14.30
  -4   4   2   87.89   14.11
   4   4  -2   62.74   10.01
   4   4  -2   85.43   12.78
  -4  -4   2   86.61   13.50
   4  -4  -2   56.49   12.82
   4   4  -2   58.77   10.59
  -4   4   1 1229.89   57.96
   4   4  -1  971.80   54.25
  -4   4   1 1102.44   53.68
   4  -4  -1 1178.02   62.87
   4   4  -1  946.04   52.49
   4   4  -1 1062.75   49.24
  -4   4   1 1345.12   63.29
  -4   4   1 1192.00   58.81
   4   4  -1 1182.29   54.67
  -4   4   1 1075.63   57.98
   4   4  -1  945.33   53.67
  -4   4   1 1075.21   58.66
   4  -4  -1 1417.11   66.71
  -4  -4   1 1161.86   63.02
  -4  -4   1 1034.88   53.53
   4  -4  -1 1221.67   58.94
   4   4  -1 1148.43   68.32
   4   4  -1 1093.15   52.86
   4   4  -1 1141.63   61.86
  -4  -4   1 1312.51   68.74
   4  -4  -1 1039.34   49.25
  -4   4   1  877.10   47.59
  -4  -4   1 1143.89   53.07
  -4   4   0 1029.70   54.27
  -4  -4   0 1370.43   60.13
  -4   4   0 1424.44   57.13
   4  -4   0 1469.87   65.15
  -4  -4   0 1432.29   73.33
  -4  -4   0 1285.83   60.69
   4   4   0 1434.64   75.40
  -4  -4   0 1371.19   69.94
   4   4   0 1290.02   58.91
   4   4   0 1199.97   60.57
  -4   4   0 1259.06   65.06
   4   4   0 1193.87   62.17
   4   4   0 1317.06   60.85
  -4  -4   0 1620.69   79.17
  -4   4   0 1491.42   66.53
   4   4   0 1240.70   54.53
   4   4   0 1369.54   60.72
  -4  -4   0 1491.19   69.24
  -4  -4   0 1677.55   62.72
   4  -4   0 1332.40   67.07
   4   4   0 1122.52   60.79
  -4   4  -1   18.03    5.48
  -4  -4  -1   20.13    6.18
   4  -4   1   23.98    7.07
  -4  -4  -1   27.14    9.53
   4   4   1   22.59    8.89
  -4  -4  -1   15.30    7.14
   4   4   1   18.78    6.46
  -4   4  -1   25.03    8.40
   4   4   1   15.54    6.52
  -4  -4  -1   31.88   10.40
   4   4   1   20.36    6.28
   4   4   1   11.54    5.58
  -4   4  -1   36.73    9.31
   4   4   1   16.29    4.63
  -4   4  -1   24.85    7.36
   4   4   1   33.04    7.56
  -4   4  -1   20.20    7.09
  -4  -4  -1   19.72    7.81
  -4   4  -1   38.10    8.22
   4  -4   1   23.51    7.40
   4  -4   1    8.91    5.33
  -4  -4  -1   34.70    7.19
  -4   4  -2 1925.39   73.84
  -4  -4  -2 1625.23   81.55
   4   4   2 1849.90   75.74
  -4   4  -2 1939.59   82.07
   4   4   2 1645.66   79.76
   4   4   2 1740.57   74.76
  -4  -4  -2 2226.23   94.99
   4   4   2 1469.42   77.42
  -4   4  -2 2354.81   89.17
  -4   4  -2 1994.84   79.87
   4   4   2 1843.64   68.05
   4   4   2 1718.75   73.33
  -4   4  -2 1915.38   82.45
  -4  -4  -2 1973.12   85.56
  -4  -4  -2 2138.83   80.26
  -4   4  -2 1649.30   75.18
   4  -4   2 1715.26   75.93
   4  -4   3 1016.02   53.28
   4   4   3 1094.70   52.72
  -4  -4  -3 1326.47   69.05
   4   4   3  951.84   57.19
  -4   4  -3 1576.66   68.08
   4   4   3 1092.09   51.26
  -4   4  -3 1219.23   59.68
  -4  -4  -3 1230.91   62.74
  -4   4  -3  939.45   50.83
  -4   4  -3 1156.29   57.81
  -4   4  -3  906.71   51.19
  -4  -4  -3 1299.13   58.24
  -4  -4  -3 1253.88   55.51
  -4   4  -3 1180.80   53.02
  -4   4  -4  226.90   20.25
  -4  -4  -4  236.33   20.77
  -4   4  -4  216.81   19.74
  -4   4  -4  240.96   22.41
  -4   4  -4  190.30   19.56
   4   4   4  211.61   23.24
  -4  -4  -4  270.36   28.99
   4   4   4  226.60   19.97
   4   4   4  196.41   23.00
   4   4   4  227.19   19.00
  -4   4  -4  190.84   19.89
   4  -4   4  203.00   20.16
   4  -4   4  226.39   22.62
  -4   4  -5  514.05   32.84
  -4  -4  -5  627.54   35.36
  -4   4  -5  433.87   30.56
  -4   4  -5  592.29   35.54
   4   4   5  468.72   36.45
   4   4   5  483.15   30.56
  -4  -4  -5  571.31   43.37
  -4  -4  -5  537.36   44.56
  -4   4  -5  748.77   44.78
   4   4   5  563.94   30.43
   4  -4   5  498.28   35.49
   4  -4   5  448.37   32.00
  -4   4  -5  391.42   30.73
   4   4   6 1924.36   72.00
  -4  -4  -6 1889.78   89.48
  -4  -4  -6 1864.88   93.07
  -4   4  -6 1576.31   72.74
  -4  -4  -6 2030.28   76.01
  -4   4  -6 1745.07   75.04
  -4   4  -6 1938.97   75.43
   4   4   6 1670.58   80.86
  -4   4  -6 1974.62   85.67
   4   4   6 1610.03   76.20
   4  -4   6 1642.97   78.24
   4  -4   6 1761.89   75.66
  -4  -4  -7  528.60   44.27
   4   4   7  424.37   35.86
  -4  -4  -7  563.69   46.73
   4   4   7  510.89   35.15
   4  -4   7  475.67   35.79
   4  -4   7  538.17   34.75
   4   4   7  537.00   38.50
  -4   4  -7  538.59   39.02
  -4   4  -7  533.97   34.42
  -4   4  -7  428.16   31.53
  -4  -4  -7  602.00   33.64
   4   4   7  438.93   36.77
  -4  -4  -8  871.63   59.06
   4   4   8  788.13   49.89
  -4  -4  -8  904.52   60.52
   4   4   8  940.69   48.72
   4  -4   8  872.89   50.87
   4   4   8  896.15   51.07
   4   4   8  787.78   51.20
  -4   4  -8  875.27   52.21
  -4   4  -8  849.17   52.86
  -4   4  -8  780.86   45.53
   4   4   9  975.52   58.34
   4   4   9  931.18   58.21
   4   4   9 1045.90   57.68
  -4  -4  -9 1059.42   65.83
  -4  -4  -9 1011.15   61.18
   4  -4   9 1112.97   58.40
   4   4   9 1227.60   55.41
   4   4   9 1247.61   60.07
   4   4   9 1107.85   59.85
  -4   4  -9  860.16   51.73
  -4   4  -9 1009.15   58.61
  -4   4  -9 1051.52   57.93
  -4  -4  -9 1125.60   64.98
  -4  -4  -9 1167.53   57.99
  -4   4  -9  926.14   51.93
   4   4  10  267.63   26.79
   4   4  10  240.01   25.98
   4   4  10  277.00   25.94
  -4  -4 -10  259.20   27.66
  -4  -4 -10  324.03   32.49
   4   4  10  295.89   27.33
   4  -4  10  280.78   26.17
  -4  -4 -10  301.52   26.49
  -4   4 -10  262.96   23.89
  -4   4 -10  306.60   30.84
  -4  -4 -10  278.48   29.15
  -4   4 -10  223.18   22.69
  -4   4 -10  285.34   27.23
  -4  -4 -11  281.40   29.08
  -4  -4 -11  278.70   27.42
  -4   4 -11  227.78   22.48
  -4   4 -11  277.26   25.66
   4   4  11  257.73   25.35
   4   4  11  314.72   26.82
  -4  -4 -11  323.36   26.91
  -4   4 -11  281.67   23.94
  -4   4 -11  328.87   30.71
  -4  -4 -12 1582.07   72.80
  -4   4 -12 1477.56   68.18
  -4   4 -12 1304.65   64.76
   4   4  12 1689.34   72.65
   4   4  12 1902.56   72.48
  -4  -4 -12 1843.48   72.70
  -4   4 -12 1365.65   64.18
  -4   4 -12 1935.65   80.06
  -4  -4 -13  235.59   19.62
  -4  -4 -13  245.35   21.77
   4   4  13  317.12   23.53
   4  -4  13  227.56   19.17
  -4   4 -13  337.29   26.52
  -4  -4 -13  296.89   22.52
   4   4  13  331.53   22.27
  -4   4 -13  190.99   18.20
   4   4  14  488.41   27.52
  -4  -4 -14  484.93   26.69
  -4   4 -14  510.88   30.57
   4   4  14  524.17   25.07
  -4  -4 -14  405.86   24.22
  -4  -6  11  111.12   11.06
  -4  -6  11  105.32    9.95
   4   6 -11   82.20    9.31
   4  -6 -11  112.74    9.91
   4  -6 -11  117.90    9.99
   4   6 -11   93.33    9.79
  -4   6  11   86.00    9.81
   4   6 -10  379.51   23.54
  -4  -6  10  397.90   24.41
  -4  -6  10  371.92   23.18
  -4   6  10  312.28   23.16
   4   6 -10  317.62   20.65
   4  -6 -10  334.46   17.98
  -4  -6  10  317.64   18.22
   4  -6 -10  376.68   21.88
  -4   6  10  330.12   22.31
  -4  -6  10  353.93   20.72
  -4  -6  10  359.52   21.97
   4   6  -9  691.61   32.07
  -4  -6   9  764.07   33.65
  -4  -6   9  717.80   31.66
  -4   6   9  598.43   32.23
   4   6  -9  639.66   27.87
   4  -6  -9  668.86   24.28
   4   6  -9  567.55   24.14
   4  -6  -9  790.72   31.72
   4   6  -9  621.51   29.92
  -4  -6   9  703.62   28.48
  -4  -6   9  719.64   30.49
  -4   6   9  634.92   29.99
  -4  -6   8   39.86    8.65
  -4  -6   8   42.55    8.47
  -4   6   8   46.14    9.80
   4  -6  -8   46.35    6.85
  -4  -6   8   39.35    6.58
   4  -6  -8   39.22    7.07
   4   6  -8   32.50    6.61
   4  -6  -8   32.67    6.34
   4   6  -8   42.73    8.86
  -4  -6   8   44.44    8.01
  -4  -6   8   37.90    7.74
  -4   6   8   36.85    7.84
   4  -6  -8   34.28    5.55
  -4   6   7  844.96   36.27
  -4  -6   7  910.50   45.77
   4   6  -7  707.88   36.55
   4   6  -7  833.89   41.92
   4  -6  -7  928.60   41.77
  -4  -6   7  794.77   37.69
   4   6  -7  720.54   39.37
   4  -6  -7  907.74   40.79
   4   6  -7  781.85   43.93
  -4  -6   7  886.91   42.88
  -4  -6   7  870.55   43.82
  -4   6   7  726.44   41.09
   4  -6  -7  763.70   35.66
   4   6  -6  589.23   32.84
  -4   6   6  605.78   30.67
  -4  -6   6  621.49   37.73
   4   6  -6  560.75   32.04
   4   6  -6  564.83   34.16
  -4   6   6  597.86   40.04
   4  -6  -6  668.29   35.69
  -4  -6   6  568.15   31.05
   4  -6  -6  621.86   34.00
   4   6  -6  590.19   37.69
  -4   6   6  587.87   35.22
  -4  -6   6  644.00   36.51
  -4  -6   6  634.95   37.24
   4   6  -5    3.62    3.29
  -4   6   5    3.64    2.40
  -4  -6   5    5.74    3.95
   4   6  -5    2.43    2.90
  -4   6   5    5.87    4.41
   4  -6  -5    5.66    3.48
  -4  -6   5    1.89    2.37
   4   6  -5    5.15    4.04
  -4  -6   5    9.10    4.61
  -4  -6   5    4.14    3.79
  -4   6   5   20.86    5.60
  -4  -6   5    2.86    1.88
  -4   6   4  302.45   21.47
   4   6  -4  316.39   22.60
   4  -6  -4  313.42   25.40
  -4  -6   4  324.99   26.43
  -4   6   4  368.25   30.09
   4   6  -4  282.06   23.18
  -4   6   4  351.69   29.16
   4  -6  -4  307.83   23.45
  -4  -6   4  280.91   20.69
   4   6  -4  291.48   25.33
  -4  -6   4  331.71   26.52
  -4  -6   4  354.06   26.67
   4  -6  -4  298.31   22.53
  -4  -6   4  274.99   19.29
   4  -6  -3 1061.53   52.39
  -4   6   3  944.67   45.98
   4   6  -3 1150.45   48.90
   4  -6  -3 1064.24   52.68
  -4   6   3 1121.89   57.00
   4   6  -3 1003.15   49.23
  -4   6   3 1258.80   61.85
  -4  -6   3  986.90   45.80
   4   6  -3  979.58   51.21
  -4  -6   3 1115.33   54.93
  -4  -6   3 1102.76   53.82
  -4  -6   3 1047.58   45.74
   4  -6  -3  997.57   49.12
   4  -6  -2    6.69    3.83
   4   6  -2   11.24    4.46
  -4  -6   2    3.41    3.75
  -4   6   2    8.72    3.73
  -4   6   2    1.76    3.41
   4   6  -2    2.83    2.98
  -4   6   2    0.77    2.73
  -4  -6   2    1.45    1.89
   4   6  -2    8.83    4.13
  -4  -6   2    7.16    4.40
   4  -6  -2    1.22    2.57
  -4  -6   2    3.01    3.16
  -4   6   2    8.18    3.81
  -4  -6   2   12.12    4.22
   4  -6  -1  477.22   31.57
   4   6  -1  442.28   32.14
  -4  -6   1  479.97   31.86
  -4   6   1  505.71   29.33
  -4   6   1  518.75   34.15
  -4   6   1  552.87   38.21
   4   6  -1  436.10   27.86
  -4  -6   1  448.44   27.19
   4   6  -1  440.45   29.15
  -4  -6   1  524.67   35.07
  -4  -6   1  514.83   34.08
   4  -6  -1  420.06   29.02
  -4   6   1  382.69   26.27
  -4  -6   1  457.48   28.14
  -4   6   0  823.67   41.30
  -4   6   0  850.62   45.65
   4   6   0  876.05   40.69
  -4   6   0  892.84   49.71
  -4  -6   0  848.70   45.13
   4  -6   0  748.64   41.53
  -4  -6   0  927.64   48.65
   4   6   0  810.29   46.89
  -4  -6   0  860.62   42.07
   4   6   1   45.87   10.14
   4   6   1   44.26    8.92
  -4  -6  -1   43.73    8.99
  -4   6  -1   34.29    7.42
  -4   6  -1   47.25   10.78
  -4   6  -1   44.60   10.09
   4  -6   1   40.88    7.56
   4  -6   1   36.33    7.82
  -4  -6  -1   54.61   10.89
   4   6   1   56.18   11.04
  -4  -6  -1   49.36    8.70
   4   6   1   45.85   10.09
  -4   6  -2  283.89   19.09
   4  -6   2  272.06   21.92
   4  -6   2  266.80   20.16
   4   6   2  300.26   26.81
   4   6   2  262.87   21.41
  -4   6  -2  271.66   24.44
   4   6   2  244.59   23.01
  -4  -6  -2  331.39   25.08
   4   6   2  263.02   22.68
  -4   6  -2  380.46   30.37
   4   6   2  294.24   22.35
  -4   6  -2  275.38   21.68
   4  -6   2  276.75   22.61
   4   6   2  275.90   25.11
  -4   6  -3 1768.92   72.62
  -4   6  -3 1654.57   66.36
  -4  -6  -3 1997.21   73.98
   4  -6   3 1770.95   72.87
   4  -6   3 1700.99   69.01
   4   6   3 2045.89   83.61
   4   6   3 1853.92   70.99
  -4   6  -3 1922.85   78.03
   4   6   3 1648.53   76.43
  -4  -6  -3 2062.94   77.91
   4   6   3 1577.78   72.38
  -4  -6  -3 2280.86   86.35
  -4   6  -3 2186.15   85.04
   4   6   3 1932.69   72.17
   4   6   3 1496.82   73.64
   4  -6   3 2041.62   76.01
  -4  -6  -4  135.18   15.28
   4   6   4  108.84   14.57
  -4  -6  -4  169.43   19.27
  -4  -6  -4  160.60   15.33
  -4   6  -4  125.88   12.24
   4  -6   4   96.61   11.64
   4  -6   4  122.93   14.19
  -4   6  -4  132.40   15.23
   4   6   4  135.21   13.36
   4   6   4  143.92   13.53
  -4   6  -4  186.95   20.11
   4   6   4  100.78   14.81
   4   6   5  442.95   31.71
   4   6   5  414.64   30.05
  -4  -6  -5  581.16   36.57
   4   6   5  443.04   25.56
  -4   6  -5  430.22   27.97
  -4  -6  -5  455.84   29.30
   4  -6   5  449.42   26.61
  -4   6  -5  548.08   35.57
  -4   6  -5  398.43   24.48
  -4  -6  -5  566.61   29.98
  -4   6  -6  746.47   41.78
  -4  -6  -6  749.38   41.73
   4   6   6  584.00   36.38
   4   6   6  664.12   29.99
  -4   6  -6  593.85   31.92
   4  -6   6  603.84   31.63
   4   6   6  539.25   35.82
  -4  -6  -6  750.59   34.58
  -4   6  -6  536.97   29.70
  -4  -6  -7  289.08   23.52
   4   6   7  197.37   19.20
  -4  -6  -7  266.77   17.09
  -4  -6  -7  276.77   24.42
   4   6   7  212.69   19.65
   4  -6   7  204.18   16.16
  -4   6  -7  198.29   15.64
  -4   6  -7  222.49   20.41
  -4   6  -7  246.08   22.20
   4   6   8  177.65   16.23
  -4  -6  -8  242.21   14.49
  -4  -6  -8  247.56   20.81
  -4  -6  -8  234.75   18.83
   4   6   8  203.33   17.19
   4  -6   8  190.87   13.44
  -4   6  -8  205.94   17.11
  -4   6  -8  212.51   18.59
  -4   6  -8  169.02   12.59
   4   6   9 1743.54   46.85
  -4  -6  -9 2063.96   39.02
  -4  -6  -9 2085.50   54.51
  -4  -6  -9 1922.52   48.85
  -4   6  -9 1573.79   42.76
   4  -6   9 1686.53   36.61
  -4   6  -9 1442.22   33.80
  -4   6  -9 2144.69   59.41
   4   6  10   82.74    9.61
  -4  -6 -10   81.12    7.31
   4   6  10   69.29    7.69
   4  -6  10   70.34    7.10
  -4   6 -10   62.28    7.85
  -4  -6 -10   84.74   10.21
  -4  -6 -10   82.75    9.51
  -4   6 -10   79.70   10.87
   4   6  11  424.58   21.10
  -4  -6 -11  422.03   18.23
  -5  -1  17   56.35   10.34
  -5   1  17   44.30    9.96
  -5   1  17   70.82   10.95
   5  -1 -17   57.72    8.74
   5   1 -17   51.94    8.87
  -5   1  17   40.84   11.01
  -5   1  17   20.96    6.30
  -5  -1  17   41.73   10.22
   5   1 -16  512.53   33.18
   5  -1 -16  493.04   31.48
   5   1 -16  682.59   33.48
  -5   1  16  384.66   34.93
  -5   1  16  457.59   33.43
  -5  -1  16  457.58   34.42
  -5  -1  16  300.49   28.81
  -5   1  16  297.05   30.43
  -5  -1  16  373.72   33.83
  -5   1  16  342.85   34.71
  -5  -1  16  364.95   34.81
  -5   1  15    5.46    6.12
  -5  -1  15   14.43    8.59
  -5  -1  15    6.01    5.73
   5   1 -15   12.38    5.17
   5   1 -15    7.03    4.84
   5  -1 -15    0.80    3.13
  -5   1  15    6.27    6.90
  -5  -1  15   11.47    6.41
  -5   1  15   15.95    6.90
   5  -1 -14  613.32   45.40
   5   1 -14  513.94   43.95
  -5   1  14  423.63   43.77
  -5  -1  14  470.29   43.60
  -5  -1  14  418.08   42.84
  -5   1  14  480.41   33.75
  -5   1  14  531.43   42.33
  -5  -1  14  586.86   46.67
  -5  -1  14  421.59   40.30
  -5   1  14  481.38   44.61
  -5  -1  14  511.66   42.43
   5  -1 -14  600.39   38.72
  -5  -1  14  531.63   36.30
   5   1 -14  637.99   38.15
   5   1 -14  496.92   39.31
   5  -1 -14  586.94   40.76
   5  -1 -13   49.54    8.12
   5   1 -13   30.72    7.45
   5   1 -13   35.12   10.49
   5  -1 -13   29.29    9.78
   5  -1 -13   38.69   10.88
   5   1 -13   43.72    9.96
  -5   1  13   28.12   11.93
  -5  -1  13   23.78   11.36
  -5   1  13   30.71    8.37
  -5  -1  13   40.58   12.79
  -5   1  13   21.90   10.41
  -5  -1  13   20.01    9.77
  -5  -1  13   33.99    9.43
   5  -1 -13   40.40   10.22
  -5   1  13   31.83   10.63
   5   1 -12 2112.39   82.79
   5  -1 -12 2274.85   81.86
   5  -1 -12 2111.34   78.19
   5   1 -12 1998.82   80.09
  -5   1  12 1597.58   79.46
  -5   1  12 2314.83   86.89
   5  -1 -12 2022.71   97.40
   5   1 -12 2553.00   93.01
  -5   1  12 1705.27  101.14
  -5  -1  12 1795.59  100.06
  -5   1  12 2074.95   98.42
  -5   1  12 1818.34   85.16
  -5   1  12 1693.00   92.35
  -5  -1  12 1689.17   97.27
  -5   1  12 2006.46  105.17
  -5  -1  12 2089.22  101.37
  -5  -1  12 2120.34   91.10
   5  -1 -12 2485.76   93.43
  -5   1  11   99.55   14.75
   5  -1 -11  123.87   13.94
   5   1 -11  116.96   14.05
  -5  -1  11  149.61   16.24
  -5   1  11  138.16   17.33
   5  -1 -11  138.52   21.54
  -5   1  11  118.09   22.41
  -5   1  11  139.86   21.06
  -5   1  11  122.97   22.66
  -5  -1  11  149.42   23.20
  -5  -1  11  136.60   18.48
   5  -1 -11  135.71   17.86
   5  -1 -11  133.26   15.20
   5   1 -11  115.47   14.62
  -5   1  11  133.92   23.09
   5   1 -11  146.80   15.19
   5  -1 -11  133.70   16.72
   5  -1 -11  127.80   15.19
  -5   1  11   98.66   17.72
  -5  -1  11   96.16   19.73
   5   1 -10  707.11   38.79
  -5   1  10  717.70   43.30
  -5   1  10  573.36   39.07
  -5  -1  10  653.80   39.46
  -5   1  10  705.66   43.52
   5   1 -10  604.28   39.88
   5   1 -10  746.87   40.54
   5  -1 -10  812.07   54.54
  -5   1  10  786.98   57.87
  -5   1  10  796.11   52.67
  -5   1  10  959.80   62.77
  -5  -1  10  769.68   54.56
   5  -1 -10  724.59   43.94
  -5  -1  10  878.72   48.98
   5  -1 -10  775.09   41.39
   5   1 -10  710.29   39.75
  -5   1  10  861.54   58.18
   5   1 -10  842.86   40.41
   5  -1 -10  809.70   44.69
   5  -1 -10  734.34   43.39
   5  -1 -10  702.61   40.62
  -5   1  10  742.10   49.55
  -5  -1  10  706.35   54.30
   5  -1  -9  383.55   27.75
   5   1  -9  294.66   22.40
  -5   1   9  321.30   27.09
  -5   1   9  230.90   21.95
   5   1  -9  412.46   37.41
  -5  -1   9  287.60   24.45
  -5   1   9  294.77   26.48
   5   1  -9  270.71   25.36
  -5   1   9  305.28   33.76
  -5   1   9  386.93   34.07
  -5  -1   9  329.75   36.56
  -5   1   9  359.62   36.14
  -5  -1   9  394.96   30.74
   5  -1  -9  323.74   26.56
  -5  -1   9  390.58   36.43
   5   1  -9  315.22   23.70
   5  -1  -9  347.43   25.49
  -5   1   9  386.64   36.59
   5   1  -9  351.34   23.95
   5  -1  -9  323.62   26.33
   5  -1  -9  337.31   26.63
   5   1  -9  308.36   21.45
   5  -1  -9  343.16   26.17
   5  -1  -9  265.19   23.53
   5   1  -9  305.53   23.73
  -5   1   9  307.86   29.30
  -5  -1   9  324.67   34.72
  -5   1   8 1891.91   79.52
   5  -1  -8 2141.35   78.28
  -5   1   8 1895.58   91.59
  -5   1   8 2102.11   89.73
  -5  -1   8 1769.53   94.91
  -5   1   8 2140.03   96.38
  -5  -1   8 2067.42   94.25
   5  -1  -8 1882.36   77.45
  -5  -1   8 1922.56   81.59
   5  -1  -8 1964.90   75.69
  -5   1   8 2269.72   96.96
   5   1  -8 1694.88   70.76
   5   1  -8 1803.65   70.89
   5  -1  -8 1963.58   77.91
   5   1  -8 1779.69   68.31
   5  -1  -8 1916.64   74.89
   5  -1  -8 1799.08   75.76
  -5   1   8 1262.09   66.92
   5  -1  -8 2105.88   91.85
   5   1  -8 2075.50   93.50
  -5  -1   8 1697.36   74.97
  -5   1   8 1599.36   76.59
   5   1  -8 1590.00   71.39
  -5   1   8 1757.44   80.70
  -5  -1   8 1693.40   90.45
   5  -1  -8 2101.13   85.94
   5   1  -8 1922.95   72.57
   5  -1  -7  198.66   18.46
  -5   1   7  224.42   21.45
  -5   1   7  190.29   23.94
  -5  -1   7  180.33   25.14
  -5  -1   7  209.51   28.16
  -5   1   7  222.00   24.06
  -5  -1   7  177.35   16.69
  -5   1   7  206.98   25.23
  -5  -1   7  209.22   25.86
  -5  -1   7  206.25   21.06
  -5   1   7  218.53   25.49
   5   1  -7  188.98   16.17
   5  -1  -7  174.06   18.09
   5  -1  -7  190.62   22.71
  -5   1   7  131.53   14.03
   5   1  -7  166.80   22.57
  -5  -1   7  180.77   18.64
   5   1  -7  147.98   16.15
  -5   1   7  186.02   19.97
  -5  -1   7  179.32   24.95
   5  -1  -7  207.17   22.09
   5   1  -7  224.14   19.18
   5  -1  -6 8748.95  224.43
  -5   1   6 8086.92  230.21
  -5   1   6 7122.90  237.10
  -5  -1   6 7030.25  244.74
  -5  -1   6 7209.71  250.55
  -5  -1   6 6942.31  218.36
  -5   1   6 8254.17  245.14
  -5  -1   6 7950.02  245.98
  -5  -1   6 6902.66  227.22
   5   1  -6 6855.39  215.88
  -5   1   6 8246.56  243.04
   5   1  -6 6825.02  215.14
   5  -1  -6 7622.37  224.67
   5  -1  -6 7869.01  224.44
  -5   1   6 4945.51  207.64
   5  -1  -6 7481.36  234.01
  -5  -1   6 6787.56  223.41
   5   1  -6 6282.01  218.15
  -5   1   6 6817.63  222.50
  -5  -1   6 6984.30  245.87
   5  -1  -6 7694.00  231.07
  -5   1   5  978.80   47.54
  -5  -1   5  804.73   55.19
  -5  -1   5  904.04   60.17
  -5  -1   5  906.59   47.10
  -5  -1   5 1030.46   58.11
  -5   1   5  932.73   53.66
   5   1  -5  809.89   38.31
  -5  -1   5  772.39   53.01
  -5   1   5 1013.90   54.31
  -5   1   5  797.32   42.29
   5   1  -5  763.50   38.96
   5  -1  -5  849.82   41.85
   5  -1  -5  868.81   47.73
   5   1  -5  935.57   51.11
  -5   1   5  674.48   31.04
  -5  -1   5  785.52   42.93
   5  -1  -5  863.22   43.27
  -5   1   5 1004.16   58.40
  -5  -1   5 1159.51   62.17
   5   1  -5  740.28   39.76
  -5   1   5  737.78   39.54
   5  -1  -5  919.51   46.62
  -5   1   4  148.61   16.49
   5   1  -4  157.87   19.35
   5   1  -4  133.04   18.73
  -5  -1   4  109.50   14.04
  -5  -1   4  131.29   19.89
  -5  -1   4  115.08   15.28
   5   1  -4   98.75   11.04
   5   1  -4   88.80   10.89
   5  -1  -4  125.83   13.69
  -5  -1   4  143.88   15.78
  -5  -1   4  214.97   22.87
   5  -1  -4  122.45   14.96
  -5  -1   4  113.00   20.30
  -5   1   4  124.47   16.73
  -5   1   4  114.64   14.65
  -5   1   4  118.59   19.93
   5  -1  -4  122.35   14.09
  -5  -1   4  197.63   24.27
   5   1  -3  561.07   38.25
   5   1  -3  520.18   37.96
  -5  -1   3  429.24   29.05
  -5  -1   3  602.71   42.41
  -5   1   3  474.72   39.75
  -5   1   3  487.42   31.10
   5  -1  -3  450.04   27.89
   5   1  -3  450.53   27.58
  -5  -1   3  497.25   40.28
  -5  -1   3  461.30   30.11
  -5  -1   3  465.52   35.98
  -5  -1   2 3151.61  123.18
  -5   1   2 2920.80  125.12
   5   1  -2 3151.73  106.49
   5  -1  -2 2878.79  105.02
   5   1  -2 3506.99  124.24
   5  -1  -2 2987.75  103.41
  -5   1   2 3254.18  107.86
  -5  -1   2 3086.04  125.00
  -5  -1   1   61.22   13.22
  -5   1   1   52.02   13.63
   5   1  -1   54.50    8.76
   5  -1  -1   57.07    8.73
   5   1  -1   72.24   13.12
   5  -1  -1   64.74   10.61
  -5   1   1   49.95    8.78
   5  -1  -1   46.45    7.52
  -5   1   0 8561.21  250.26
  -5  -1   0 9999.00  247.74
   5   1   0 8494.57  221.73
   5  -1   0 6863.19  216.89
   5  -1   0 7100.13  225.86
   5  -1   0 6101.79  211.18
   5   1   0 6620.70  233.00
  -5  -1  -1   25.84    7.25
  -5   1  -1    5.56    5.64
   5  -1   1   14.99    3.37
   5   1   1   15.61    7.94
   5  -1   1   14.80    3.87
   5  -1   1   13.38    4.24
   5  -1   1   15.41    3.69
   5  -1   2  878.15   34.31
  -5  -1  -2  731.66   48.54
   5   1   2 1120.01   47.68
   5   1   2 1213.97   47.92
  -5   1  -2  817.63   47.36
  -5  -1  -2 1144.01   51.92
  -5   1  -3   19.19    8.05
  -5  -1  -3   19.81    7.67
  -5  -1  -3   18.36    7.31
   5   1   3   30.03    7.69
   5  -1   3   22.39    3.69
  -5  -1  -3   17.31    6.04
   5   1   3   28.56    6.80
  -5  -1  -4 3649.97  137.50
  -5  -1  -4 3114.67  129.61
  -5   1  -4 2760.01  131.00
  -5  -1  -4 4789.57  150.16
  -5   1  -4 2718.96  130.81
  -5  -1  -4 4588.66  149.20
   5   1   4 5079.90  133.62
   5  -1   4 3880.59  116.83
   5   1   4 4534.21  137.01
  -5  -1  -5   22.70    7.56
  -5   1  -5   22.93    8.76
  -5   1  -5   28.87   10.07
  -5  -1  -5   48.19   11.82
  -5  -1  -5   43.45   11.93
   5   1   5   50.77   10.99
  -5  -1  -5   23.56    6.26
  -5  -1  -5   33.36    7.65
   5   1   5   37.64    9.66
   5   1   5   49.28    8.38
   5  -1   5   35.92    5.28
   5  -1   6 5855.18  151.12
   5   1   6 5915.71  167.74
  -5   1  -6 3586.30  158.99
  -5  -1  -6 5239.64  173.93
  -5  -1  -6 3268.36  145.17
  -5  -1  -6 3465.54  143.62
  -5   1  -6 3878.67  168.61
   5   1   6 5680.47  163.95
   5  -1   6 4417.52  137.90
  -5  -1  -7  169.93   24.09
  -5   1  -7  132.28   21.29
   5   1   7  206.44   22.22
   5  -1   7  182.03   18.96
  -5  -1  -7  115.00   15.31
  -5  -1  -7  134.49   23.13
  -5   1  -7  127.31   22.65
   5   1   7  167.09   20.04
  -5  -1  -7  156.57   20.14
  -5  -1  -7  157.50   26.51
  -5   1  -7  136.99   15.17
  -5   1  -7  128.79   17.39
  -5  -1  -7  132.29   19.00
  -5   1  -7  148.74   23.12
  -5  -1  -7  179.58   25.40
  -5   1  -8  429.63   41.07
  -5  -1  -8  506.59   44.46
   5   1   8  549.26   37.80
   5  -1   8  494.64   33.41
  -5  -1  -8  301.18   26.94
   5   1   8  543.24   38.17
  -5  -1  -8  385.14   33.74
  -5  -1  -8  383.94   33.60
  -5  -1  -8  404.97   44.17
  -5   1  -8  441.56   33.11
  -5   1  -8  370.61   27.38
  -5   1  -8  387.54   28.95
  -5   1  -8  374.00   30.95
  -5   1  -8  293.97   26.81
  -5  -1  -8  441.49   43.58
  -5   1  -8  438.27   44.27
  -5   1  -9    3.32    7.46
  -5  -1  -9    3.23    6.28
  -5   1  -9    9.65    5.40
  -5   1  -9    7.77    5.98
  -5   1  -9    9.12    4.46
  -5   1  -9   18.83    7.99
  -5  -1  -9   10.48    9.20
  -5   1  -9    7.57    4.38
  -5  -1  -9   12.09    6.97
  -5  -1  -9    9.41    5.75
   5   1   9    8.01    5.51
  -5   1  -9    6.80    4.87
  -5   1  -9   11.45    7.54
  -5  -1  -9    8.67    7.61
   5  -1   9   10.51    5.60
   5   1   9   17.80    7.21
   5   1  10 3196.98  110.15
   5   1  10 2970.25  125.51
   5  -1  10 2933.73  106.56
  -5  -1 -10 2508.52  126.37
  -5   1 -10 2364.44  124.37
  -5   1 -10 2117.73  111.83
  -5  -1 -10 2645.55  131.51
  -5  -1 -10 2346.53  107.14
   5   1  10 3204.73  110.55
  -5   1 -10 2108.44   94.20
  -5   1 -10 2396.97  101.64
  -5   1 -10 2313.01  102.31
   5   1  10 3206.72  117.73
  -5   1 -10 1871.07   97.19
  -5  -1 -10 2538.40  122.20
  -5   1 -10 2466.76  119.60
   5   1  11   27.73   10.80
  -5   1 -11   16.84   10.37
  -5  -1 -11   28.40   11.87
   5   1  11   21.86    9.20
  -5   1 -11   20.47    8.35
  -5   1 -11   26.89   11.24
  -5  -1 -11   33.37   12.20
   5   1  11   31.54    9.71
  -5   1 -11   21.11    7.43
  -5   1 -11   15.77    6.77
  -5   1 -11   18.35    8.60
  -5  -1 -11   30.07   13.48
  -5   1 -11   18.38    6.38
   5   1  12 4355.01  156.32
  -5  -1 -12 3140.48  132.72
  -5   1 -12 2546.79  131.46
  -5  -1 -12 3249.51  153.17
  -5   1 -12 3104.89  123.81
  -5   1 -12 3143.13  129.63
   5   1  12 4246.86  146.32
   5  -1  12 3573.85  137.42
   5   1  12 4488.75  144.38
   5   1  12 4257.33  140.42
  -5   1 -12 2974.16  139.85
  -5  -1 -12 3300.40  145.41
  -5  -1 -13  330.03   30.15
  -5   1 -13  229.71   26.99
  -5  -1 -13  356.92   38.60
  -5   1 -13  324.69   28.92
   5  -1  13  445.63   34.65
   5   1  13  440.30   35.43
   5   1  13  478.65   35.10
   5  -1  13  369.56   32.90
  -5  -1 -13  330.41   34.18
  -5  -1 -13  286.00   25.23
  -5   1 -13  300.30   32.26
   5   1  13  438.99   38.86
  -5   1 -14   11.07    5.99
  -5  -1 -14   13.42    6.77
  -5  -1 -14   12.84    6.25
  -5   1 -14   14.33    6.07
  -5  -1 -14    6.11    6.45
  -5   1 -14   36.32    9.00
  -5  -1 -14   10.96    4.68
   5   1  14   19.58    7.04
  -5  -1 -15   14.29    5.56
  -5   1 -15    5.74    3.80
  -5  -1 -15    5.64    5.59
   5  -1  15   10.81    4.48
   5   1  15   10.40    4.46
  -5  -1 -15   11.65    3.92
  -5  -1 -16 1159.20   60.17
  -5   1 -16 1142.33   61.10
  -5  -3  16  321.13   23.75
   5   3 -16  517.88   26.46
   5  -3 -16  408.26   22.72
  -5  -3  16  294.54   21.37
  -5   3  16  269.28   24.30
  -5  -3  16  328.09   25.37
  -5   3  16  428.15   24.77
  -5  -3  15  427.61   30.78
  -5   3  15  370.31   25.11
  -5  -3  15  405.58   23.83
  -5  -3  15  378.77   27.69
   5  -3 -15  408.04   19.10
  -5  -3  14  384.01   33.76
  -5   3  14  342.56   29.28
   5  -3 -14  375.34   23.32
   5   3 -14  276.31   21.54
   5   3 -14  520.91   33.23
  -5   3  14  203.89   24.33
  -5  -3  14  398.46   28.72
   5  -3 -14  448.17   29.45
  -5  -3  14  357.97   31.65
  -5  -3  13   33.35   10.50
   5   3 -13   49.74    8.51
   5  -3 -13   49.83    8.55
   5  -3 -13   52.96   10.38
  -5   3  13   60.16   11.64
   5   3 -13   43.90    9.47
   5   3 -13   26.65    6.96
   5  -3 -13   34.93    7.42
  -5  -3  13   40.18   12.06
   5  -3 -13   38.70    9.55
  -5   3  13   31.78    9.96
  -5  -3  13   36.90    9.48
   5  -3 -12 1958.13   77.53
  -5   3  12 1299.00   70.80
  -5  -3  12 1568.90   85.11
  -5   3  12 1572.27   83.34
  -5   3  12 1247.79   74.00
  -5  -3  12 1798.53   80.15
   5  -3 -12 1938.09   79.63
  -5  -3  12 1564.35   84.10
  -5   3  12 1394.04   78.02
   5  -3 -12 1852.61   70.23
   5   3 -12 1741.47   68.49
   5  -3 -12 1832.29   74.92
   5  -3 -12 1937.99   76.75
   5   3 -12  957.04   64.29
  -5   3  12 1538.31   73.61
   5  -3 -12 1807.72   83.23
   5   3 -12 2052.20   77.94
   5   3 -12 1168.80   63.21
   5  -3 -12 1703.31   67.65
  -5   3  12 1054.99   68.29
  -5  -3  12 1536.00   78.43
  -5  -3  12 1858.25   85.91
  -5   3  11  105.29   16.79
   5  -3 -11  159.71   19.38
  -5   3  11   98.87   17.89
   5  -3 -11  124.50   18.41
  -5  -3  11  137.21   19.67
  -5  -3  11  140.66   23.09
  -5   3  11   96.79   17.52
  -5   3  11   89.11   15.68
   5  -3 -11  128.88   16.27
   5   3 -11  125.52   15.26
   5  -3 -11  141.92   18.35
  -5  -3  11   87.85   18.75
  -5   3  11  117.11   20.10
   5   3 -11  154.02   19.02
   5   3 -11   69.97   12.09
   5  -3 -11  108.35   13.93
  -5   3  11   91.62   16.73
  -5  -3  11  159.37   22.98
  -5  -3  11  117.82   19.16
   5  -3 -10  349.32   29.78
  -5   3  10  252.23   26.66
  -5   3  10  281.08   31.17
  -5   3  10  291.26   30.75
  -5  -3  10  262.53   32.67
  -5  -3  10  305.51   30.12
  -5   3  10  209.47   25.68
   5  -3 -10  276.95   21.67
  -5   3  10  273.24   29.33
  -5  -3  10  259.87   32.33
  -5   3  10  243.56   27.16
   5  -3 -10  280.81   25.52
   5   3 -10  299.96   24.43
   5  -3 -10  350.35   29.31
   5  -3 -10  330.00   32.34
   5  -3 -10  304.65   23.96
   5   3 -10  194.28   20.75
   5   3 -10  310.03   28.25
  -5   3  10  217.60   26.55
  -5  -3  10  346.64   34.80
  -5  -3  10  273.50   29.70
  -5   3  10  255.13   27.47
   5  -3  -9 1264.68   62.82
  -5   3   9 1062.26   60.84
   5   3  -9 1111.01   52.55
   5  -3  -9 1146.83   64.76
   5   3  -9 1356.13   64.55
  -5   3   9 1180.03   67.08
  -5  -3   9 1041.82   69.97
  -5   3   9 1193.08   67.37
  -5   3   9  950.27   58.61
  -5  -3   9 1127.07   63.88
  -5  -3   9  993.26   68.48
  -5   3   9  994.52   60.65
  -5   3   9 1029.68   61.27
  -5  -3   9  984.42   50.79
   5  -3  -9 1074.80   58.48
   5   3  -9 1109.65   53.83
   5  -3  -9 1155.77   56.78
   5  -3  -9 1233.47   61.26
   5   3  -9 1232.41   53.71
  -5   3   9  838.49   57.73
  -5  -3   9 1134.95   57.71
  -5  -3   9 1247.20   71.50
  -5  -3   9 1043.84   63.54
  -5   3   9  980.32   58.05
  -5   3   8 2039.04   89.81
   5   3  -8 1638.53   80.73
   5   3  -8 2021.57   79.28
  -5  -3   8 1936.16   82.92
   5  -3  -8 2134.61   93.42
  -5   3   8 2155.95   76.65
  -5   3   8 2178.16   95.98
  -5  -3   8 1854.82   99.12
  -5   3   8 2011.05   93.11
  -5   3   8 1719.57   83.68
  -5  -3   8 1970.38   91.35
   5   3  -8 2127.51   77.86
  -5  -3   8 1822.66   98.74
  -5   3   8 1841.49   86.84
  -5   3   8 1915.80   89.32
  -5  -3   8 1775.16   77.64
   5   3  -8 1976.54   79.28
   5   3  -8 2254.21   81.34
  -5   3   8 1526.69   83.99
   5  -3  -8 2053.91   88.75
  -5  -3   8 1819.03   91.43
  -5  -3   8 2126.32   99.44
  -5   3   8 1743.34   82.74
   5   3  -7   28.41    7.15
  -5   3   7   12.64    6.74
  -5  -3   7   23.12    7.22
   5  -3  -7   12.47    6.65
  -5   3   7   17.95    5.45
  -5   3   7   20.94    8.65
  -5  -3   7   12.63    8.34
   5   3  -7   12.85    5.10
  -5  -3   7    7.23    6.37
  -5   3   7   10.95    6.53
  -5   3   7   25.01    7.99
  -5  -3   7   15.59    9.28
   5  -3  -7   28.79    9.60
  -5   3   7   13.54    6.53
   5   3  -7   17.59    5.71
  -5  -3   7   16.34    5.74
   5  -3  -7   12.07    6.61
  -5  -3   7   17.02    8.42
   5  -3  -7    9.12    5.81
  -5  -3   7   11.08    7.26
  -5   3   7   22.59    6.98
   5   3  -7   29.13    8.98
   5   3  -6 3426.05  119.92
   5   3  -6 4563.70  155.51
   5   3  -6 3542.04  124.43
  -5   3   6 2745.95  128.28
  -5  -3   6 3515.41  127.13
  -5   3   6 3516.88  121.10
  -5   3   6 3879.31  138.24
  -5  -3   6 3201.35  146.52
   5   3  -6 3628.41  124.59
  -5  -3   6 3244.99  135.91
   5  -3  -6 4109.93  141.91
   5   3  -6 3456.15  122.70
  -5  -3   6 3506.85  151.37
  -5  -3   6 3271.17  125.38
  -5   3   6 3747.02  138.04
   5   3  -6 3928.33  127.38
   5  -3  -6 3871.80  138.44
   5  -3  -6 3535.66  135.61
  -5  -3   6 3355.20  142.15
  -5  -3   6 3562.84  141.79
   5   3  -6 3925.49  140.89
  -5   3   6 3415.80  125.23
   5   3  -5  994.06   44.69
  -5   3   5 1089.88   56.41
   5   3  -5 1216.66   68.30
   5   3  -5  999.07   48.78
  -5   3   5  683.03   48.37
  -5  -3   5  954.63   47.86
  -5   3   5  961.67   45.60
  -5   3   5 1176.27   60.86
  -5  -3   5  976.68   65.46
  -5   3   5 1071.39   56.14
   5   3  -5 1029.78   48.54
  -5  -3   5  920.85   56.38
  -5  -3   5  999.33   62.70
   5   3  -5 1012.46   46.95
   5  -3  -5 1061.84   58.54
  -5  -3   5 1061.43   68.65
   5   3  -5 1038.99   48.18
  -5  -3   5  919.12   49.19
  -5   3   5  998.31   56.11
   5   3  -5 1044.57   49.31
   5  -3  -5  928.36   54.78
  -5  -3   5 1133.21   63.70
  -5   3   5  989.36   46.14
   5   3  -4  735.68   48.72
   5   3  -4  648.16   48.79
   5   3  -4  560.23   33.77
  -5   3   4  412.71   33.94
  -5  -3   4  561.98   32.40
  -5   3   4  530.95   31.21
  -5   3   4  733.12   44.20
  -5   3   4  655.29   40.05
  -5  -3   4  609.94   49.14
   5   3  -4  569.12   33.83
   5  -3  -4  577.37   41.00
  -5  -3   4  619.99   47.83
   5   3  -4  589.13   32.12
  -5  -3   4  536.64   34.50
   5   3  -4  642.53   34.29
   5   3  -4  615.68   35.18
   5   3  -4  546.23   34.08
   5  -3  -4  621.04   42.52
  -5  -3   4  706.79   49.01
   5  -3  -4  631.81   41.34
  -5   3   4  596.32   39.29
   5   3  -4  588.24   30.51
  -5   3   3 2046.93   82.32
  -5  -3   3 2074.60   98.16
  -5   3   3 1586.24   72.95
   5   3  -3 1705.92   70.24
  -5  -3   3 2001.96   94.37
   5   3  -3 1620.39   64.94
   5   3  -3 1751.68   68.18
  -5   3   3 1864.48   81.73
  -5  -3   3 1624.40   70.48
  -5   3   3 1923.05   80.77
   5   3  -3 1798.87   91.54
   5   3  -3 2100.21   91.52
   5  -3  -3 1706.96   74.42
  -5   3   3 1409.25   71.71
  -5  -3   3 1795.15   67.23
   5   3  -3 1589.25   62.57
  -5   3   3 1781.45   77.79
  -5  -3   3 1808.87   72.83
   5   3  -3 1537.78   70.03
   5  -3  -3 1718.03   79.88
   5  -3  -3 1789.02   79.21
  -5   3   2 3682.53  130.77
   5   3  -2 3591.74  126.88
   5   3  -2 3270.36  118.84
  -5  -3   2 4274.24  155.20
   5   3  -2 3568.36  122.79
  -5   3   2 4005.69  142.95
  -5   3   2 4238.01  139.68
  -5  -3   2 3671.12  128.12
   5   3  -2 3705.82  127.86
  -5  -3   2 5039.31  170.81
  -5   3   2 4152.79  136.82
  -5   3   2 3300.17  126.03
  -5  -3   2 3602.77  119.21
   5   3  -2 3808.66  149.43
   5  -3  -2 3938.80  135.02
   5   3  -2 3817.47  153.74
   5   3  -2 3542.78  126.05
  -5  -3   2 4025.07  131.08
   5   3  -2 3300.08  127.86
   5  -3  -2 3603.78  137.09
   5  -3  -2 3847.17  136.91
   5   3  -1   84.79   11.80
  -5  -3   1   83.59   16.97
  -5   3   1  103.05   15.03
  -5   3   1   91.62   15.44
  -5  -3   1   78.15   11.52
   5   3  -1   93.93   10.72
   5   3  -1   90.42   12.08
   5   3  -1   78.13   12.30
   5  -3  -1   56.72   12.21
   5  -3  -1   92.14   14.13
  -5   3   1   69.77   12.23
   5  -3  -1   93.58   14.37
  -5  -3   1   65.85   12.36
   5   3  -1   88.82   18.33
  -5  -3   1  105.70   17.66
   5   3  -1   80.34   11.20
  -5  -3   1   67.05   13.62
  -5   3   1   86.03   13.32
  -5   3   0 4899.73  156.78
  -5   3   0 2886.48  138.06
   5   3   0 3472.63  150.16
  -5  -3   0 5415.56  144.96
  -5   3   0 5595.17  162.79
  -5  -3   0 4752.98  150.95
   5   3   0 4428.08  142.01
   5   3   0 4755.68  149.36
  -5  -3   0 5938.69  179.72
   5   3   0 4518.42  148.99
  -5   3   0 4356.07  153.95
   5  -3   0 4777.50  160.33
   5  -3   0 4744.46  157.02
  -5  -3   0 4514.79  162.44
  -5  -3   0 4025.35  152.23
  -5  -3   0 5608.92  172.92
   5   3   0 4413.57  146.85
  -5   3  -1  308.56   23.58
   5   3   1  300.16   22.70
  -5  -3  -1  338.38   34.37
  -5   3  -1  447.33   33.58
  -5   3  -1  378.43   27.80
   5   3   1  317.42   22.74
  -5  -3  -1  371.11   33.35
  -5   3  -1  161.52   16.48
  -5  -3  -1  392.46   22.29
   5   3   1  240.63   24.27
  -5   3  -1  319.32   25.40
   5  -3   1  308.91   26.05
   5  -3   1  378.96   29.92
   5  -3   1  377.32   27.62
  -5  -3  -1  297.53   27.56
  -5  -3  -1  284.89   24.23
  -5  -3  -1  387.47   31.94
   5   3   1  322.38   22.25
   5   3   2  509.03   28.54
  -5   3  -2  500.99   31.96
  -5  -3  -2  607.21   29.64
   5   3   2  464.25   34.77
  -5  -3  -2  520.23   39.64
   5   3   2  510.92   29.25
   5   3   2  502.00   29.93
  -5  -3  -2  566.78   43.96
   5  -3   2  469.91   31.52
   5  -3   2  534.07   32.67
  -5  -3  -3 1795.50   72.74
   5   3   3 1987.38   71.54
  -5   3  -3 1996.23   77.04
  -5  -3  -3 2059.06   82.81
   5   3   3 1871.94   71.46
  -5  -3  -3 1878.69   87.76
   5  -3   3 1718.67   74.22
   5  -3   3 1725.31   74.96
   5  -3   3 1841.21   74.24
  -5  -3  -3 2032.40   94.56
   5   3   3 1798.40   72.69
  -5  -3  -4 2922.80   97.87
   5   3   4 3336.56   96.16
   5  -3   4 2533.43   99.13
   5  -3   4 2818.91   96.46
   5  -3   4 2816.33   99.05
   5   3   4 2850.79   96.86
  -5  -3  -4 3101.51  124.45
  -5  -3  -4 2863.52  119.68
  -5   3  -4 2434.10   96.30
  -5   3  -4 1809.46   91.38
   5   3   4 2665.00  108.76
  -5   3  -4 2058.33   93.37
  -5   3  -4 3170.64  101.00
  -5   3  -5   26.00    6.62
   5   3   5   26.63    8.54
   5   3   5   30.96    6.16
  -5   3  -5   35.27    8.51
  -5   3  -5   22.52    6.50
  -5  -3  -5   32.69   11.23
   5   3   5   31.77    6.75
   5  -3   5   31.12    7.93
  -5   3  -5   23.97    6.64
  -5  -3  -5   36.72    8.96
  -5   3  -5   30.64    7.47
  -5  -3  -5   33.56    7.29
   5   3   6 3177.37  118.55
  -5  -3  -6 2949.81  129.44
   5   3   6 3476.96  107.14
  -5  -3  -6 3161.99  132.12
  -5  -3  -6 3430.68  121.64
  -5   3  -6 2615.22  107.98
   5   3   6 3054.29  121.97
  -5  -3  -6 2625.10  122.37
  -5   3  -6 2820.92  113.29
  -5   3  -6 3095.64  114.99
   5  -3   6 2976.53  113.27
   5  -3   7  465.27   33.08
  -5  -3  -7  484.05   36.30
  -5  -3  -7  443.10   41.00
  -5   3  -7  415.85   30.66
  -5   3  -7  362.05   28.29
   5   3   7  604.86   42.12
  -5   3  -7  346.59   32.75
   5   3   7  511.10   38.19
  -5  -3  -7  407.36   37.30
  -5  -3  -7  398.39   33.47
   5   3   7  514.18   35.84
  -5   3  -7  463.53   33.46
  -5   3  -7  453.68   32.83
   5   3   8   69.36   11.38
   5  -3   8   45.14   10.23
  -5   3  -8   40.45    9.16
  -5  -3  -8   48.69   11.63
  -5  -3  -8   25.32   11.26
  -5   3  -8   39.25    9.11
   5   3   8   54.73   12.96
  -5   3  -8   39.69   11.36
   5   3   8   47.91   11.35
  -5  -3  -8   37.14   10.76
  -5  -3  -8   38.21   11.54
   5   3   8   74.03   13.34
  -5   3  -8   39.49    9.76
  -5   3  -8   36.76    9.52
  -5   3  -8   49.63    9.63
   5  -3   9  870.57   48.44
  -5  -3  -9  885.86   52.93
  -5  -3  -9  683.85   53.39
   5   3   9  880.15   52.16
  -5   3  -9  655.71   41.75
  -5   3  -9  648.20   41.68
  -5   3  -9  861.34   53.43
   5   3   9 1093.26   58.45
  -5   3  -9  587.14   46.39
   5   3   9  840.31   50.47
  -5  -3  -9  678.26   50.19
  -5  -3  -9  683.26   46.71
   5   3   9  931.18   49.76
  -5   3  -9  711.52   44.46
  -5   3  -9  623.76   41.62
   5   3  10 2428.57   85.71
   5   3  10 2150.16   88.02
   5  -3  10 1971.16   81.43
   5   3  10 1892.21   85.03
   5   3  10 1993.92   84.35
  -5  -3 -10 1507.49   83.27
  -5  -3 -10 1509.48   79.09
  -5   3 -10 1288.85   77.92
  -5  -3 -10 1671.86   80.40
   5   3  10 2451.28   94.22
  -5  -3 -10 2005.05   87.54
  -5  -3 -10 1572.52   88.59
  -5   3 -10 1915.77   87.73
  -5   3 -10 1477.81   72.75
  -5   3 -10 1566.39   75.09
  -5   3 -10 1349.10   72.34
   5   3  11   13.05    6.02
   5  -3  11   19.15    6.21
   5   3  11   11.37    6.39
   5   3  11   16.38    5.82
  -5  -3 -11   12.05    6.59
  -5   3 -11    6.08    5.35
  -5  -3 -11    7.00    5.56
   5   3  11    9.61    6.11
  -5   3 -11   13.43    5.69
  -5   3 -11    5.64    4.44
  -5   3 -11   14.93    6.89
  -5  -3 -11   13.42    6.81
  -5  -3 -11   17.30    8.78
  -5   3 -11   10.92    4.91
   5   3  12 2256.24   82.01
   5   3  12 2071.98   83.99
  -5  -3 -12 1679.20   76.04
  -5   3 -12 1375.70   75.28
  -5  -3 -12 2130.17   85.38
  -5  -3 -12 1736.11   85.96
  -5   3 -12 1481.04   70.79
  -5   3 -12 2002.86   84.99
  -5   3 -12 1479.38   73.22
  -5   3 -13  298.55   25.37
  -5  -3 -13  362.23   27.35
   5   3  13  467.45   31.29
  -5  -3 -13  332.38   25.54
  -5   3 -13  269.97   25.39
   5   3  13  446.44   27.78
  -5  -3 -13  407.73   30.61
  -5  -3 -13  373.36   32.19
  -5   3 -13  422.03   31.98
   5   3  14   14.74    5.13
  -5   3 -14   12.42    4.84
  -5  -3 -14   15.18    5.46
  -5   3 -14   16.32    6.11
  -5  -3 -14    9.93    4.40
   5   3  14    8.19    3.79
   5   3  15  429.68   25.35
  -5  -3 -15  466.41   26.58
  -5   3 -15  440.24   27.68
  -5  -3 -15  383.68   22.77
  -5   5  13  250.75   14.87
   5   5 -13  196.82   15.27
   5   5 -13  226.53   15.45
   5  -5 -13  247.91   15.98
  -5  -5  13  205.19   15.99
  -5   5  12  739.99   41.57
  -5  -5  12 1047.35   48.65
  -5  -5  12  963.05   45.31
   5   5 -12  908.70   40.94
   5  -5 -12 1003.46   40.23
   5  -5 -12 1083.79   42.84
   5   5 -12 1177.19   47.11
  -5   5  12  954.26   41.87
   5   5 -12  893.84   43.48
  -5  -5  12  812.55   38.43
  -5  -5  12 1040.61   47.58
  -5  -5  11  274.07   24.08
  -5  -5  11  245.27   21.88
   5  -5 -11  275.01   19.34
   5  -5 -11  280.62   20.63
   5   5 -11  228.52   18.50
  -5   5  11  223.11   22.20
   5  -5 -11  263.20   16.59
   5   5 -11  306.62   23.73
  -5   5  11  218.65   20.29
  -5  -5  11  300.17   24.67
  -5   5  11  224.45   21.91
   5   5 -10   72.92   10.60
  -5   5  10   65.76   12.64
   5  -5 -10   81.58   10.03
   5   5 -10   92.29   13.91
  -5   5  10   80.44    9.02
   5  -5 -10   92.46   12.33
   5  -5 -10   98.44   12.09
  -5  -5  10   98.98   15.35
  -5  -5  10   79.42   13.18
  -5  -5  10   78.42   13.52
  -5   5  10   62.72   11.01
   5   5  -9  853.65   45.39
  -5   5   9  896.12   54.63
   5  -5  -9  994.56   46.88
   5  -5  -9 1095.34   52.26
   5  -5  -9 1071.53   49.90
  -5   5   9 1010.87   43.44
  -5   5   9  814.16   47.71
  -5  -5   9 1021.93   56.10
  -5  -5   9 1021.51   57.17
  -5  -5   9 1005.24   54.58
   5  -5  -8  640.41   37.83
  -5   5   8  450.31   33.26
  -5  -5   8  634.07   44.23
   5  -5  -8  690.65   43.13
  -5  -5   8  606.84   41.55
  -5   5   8  552.23   41.41
   5   5  -8  495.08   32.12
   5  -5  -8  682.42   39.32
  -5  -5   8  521.44   33.69
  -5   5   8  578.23   31.66
   5  -5  -8  711.95   38.10
  -5   5   8  574.08   41.85
  -5   5   8  511.82   34.78
  -5  -5   8  661.17   44.16
  -5   5   7  313.88   29.84
   5   5  -7  308.16   24.07
  -5  -5   7  372.64   33.45
   5  -5  -7  384.41   31.89
  -5  -5   7  315.78   29.82
  -5   5   7  347.03   31.78
   5   5  -7  279.77   23.74
   5  -5  -7  380.08   29.36
   5   5  -7  291.13   23.81
  -5  -5   7  305.78   24.70
   5  -5  -7  265.27   23.65
  -5   5   7  298.87   22.18
   5  -5  -7  339.68   27.15
  -5   5   7  256.90   24.31
   5  -5  -6 2006.25   86.22
   5   5  -6 2094.56   82.90
  -5   5   6 2088.33   82.31
  -5  -5   6 1963.59   84.66
  -5   5   6 2161.08   95.92
   5   5  -6 2098.48   85.94
  -5  -5   6 2531.81  104.67
   5  -5  -6 2548.78  100.75
   5   5  -6 2098.67   86.26
   5   5  -6 2145.43   86.94
   5  -5  -6 2597.41   97.00
   5  -5  -6 2345.77   93.25
  -5  -5   6 2272.64   87.95
   5  -5  -5 1198.96   59.49
  -5   5   5 1278.39   58.04
  -5  -5   5 1338.98   56.12
   5   5  -5 1480.91   76.15
  -5  -5   5 1264.74   59.91
  -5  -5   5 1460.47   69.99
   5   5  -5 1123.69   64.40
  -5   5   5 1343.42   68.64
  -5   5   5 1263.63   63.96
   5   5  -5 1323.43   62.14
   5  -5  -5 1618.88   74.64
  -5  -5   5 1581.86   77.63
  -5   5   5 1368.67   70.80
   5   5  -5 1371.57   62.06
   5   5  -5 1369.66   63.27
   5  -5  -5 1619.81   72.02
   5  -5  -5 1353.38   67.19
  -5  -5   5 1465.13   63.39
  -5   5   4  222.94   19.80
  -5  -5   4  230.84   19.23
  -5  -5   4  270.53   25.47
   5   5  -4  269.25   29.90
  -5  -5   4  225.50   20.55
  -5  -5   4  253.46   25.98
   5   5  -4  228.95   24.06
  -5   5   4  209.90   21.82
   5   5  -4  263.96   23.73
   5  -5  -4  289.68   28.24
  -5  -5   4  326.73   31.97
  -5   5   4  292.27   28.20
   5   5  -4  246.06   21.84
   5   5  -4  264.97   23.53
   5  -5  -4  239.81   24.70
   5   5  -4  243.64   21.53
  -5   5   3 1203.60   57.88
  -5  -5   3 1440.37   60.22
  -5  -5   3 1499.88   72.22
  -5  -5   3 1606.90   71.27
   5  -5  -3 1524.99   69.31
   5   5  -3 1611.96   81.33
  -5  -5   3 1261.09   58.83
   5   5  -3 1180.30   63.93
  -5   5   3 1279.64   62.37
   5   5  -3 1229.14   61.75
   5   5  -3 1421.05   65.37
   5  -5  -3 1536.76   72.94
  -5   5   3 1513.54   72.18
  -5   5   3 1655.03   77.34
   5   5  -3 1329.31   60.58
  -5  -5   3 1383.78   65.25
   5  -5  -3 1571.36   74.12
   5   5  -3 1232.69   62.36
   5  -5  -3 1317.30   67.42
   5  -5  -2  921.99   53.05
  -5   5   2  778.51   42.75
  -5   5   2  942.54   53.61
  -5   5   2 1046.62   59.70
   5   5  -2  862.46   44.43
   5   5  -2  998.98   50.23
  -5  -5   2  878.87   48.70
   5   5  -2  827.92   48.04
  -5  -5   2 1028.23   56.92
  -5  -5   2  993.87   53.79
   5  -5  -2 1032.90   52.16
   5   5  -2 1032.11   62.56
  -5  -5   2  780.41   42.64
  -5  -5   2  932.59   45.66
  -5   5   2  847.51   46.51
   5   5  -2  831.22   48.61
  -5  -5   1  335.89   25.22
  -5  -5   1  341.62   31.16
   5  -5  -1  311.50   26.09
  -5  -5   1  359.43   30.21
   5   5  -1  354.78   34.68
  -5   5   1  325.02   29.34
   5   5  -1  319.58   26.23
   5   5  -1  309.81   27.74
  -5  -5   1  384.52   33.78
   5   5  -1  349.19   27.70
   5   5  -1  283.20   24.17
   5   5  -1  271.41   21.87
  -5   5   1  325.07   28.89
  -5   5   1  376.98   32.94
   5   5  -1  354.35   27.24
  -5  -5   1  329.22   26.97
  -5   5   1  267.58   22.27
   5  -5  -1  319.09   27.98
  -5   5   0 2352.24   82.16
  -5  -5   0 2409.48   87.34
   5  -5   0 1905.05   79.94
  -5  -5   0 2407.00   99.26
   5  -5   0 2059.09   85.58
  -5  -5   0 2243.12   93.15
   5   5   0 2286.94  100.83
   5   5   0 2085.72   84.72
  -5   5   0 2096.43   91.79
   5   5   0 2026.62   90.79
   5   5   0 2201.21   88.27
  -5  -5   0 2676.40  103.23
   5   5   0 1630.62   83.24
   5   5   0 2153.02   79.89
  -5   5   0 2477.27   93.86
  -5  -5   0 2196.31   88.29
   5   5   0 2140.75   86.13
  -5   5   0 1803.80   79.64
   5  -5   0 2049.26   88.35
  -5   5  -1 1045.70   48.29
  -5  -5  -1 1168.66   53.53
   5  -5   1  942.21   46.90
   5  -5   1  977.28   50.71
   5   5   1 1027.04   60.60
  -5  -5  -1 1045.33   56.62
   5   5   1 1055.06   49.86
  -5   5  -1 1034.68   56.07
   5   5   1 1002.69   56.63
   5   5   1  993.92   52.03
  -5  -5  -1 1188.67   63.39
   5   5   1  891.05   52.45
   5   5   1 1128.30   46.41
  -5   5  -1 1331.92   66.28
   5   5   1  989.57   50.20
  -5  -5  -1 1081.84   54.30
  -5   5  -1  879.19   47.11
   5  -5   1  970.58   52.39
   5   5   2   68.87   13.33
   5   5   2   71.01   11.53
  -5  -5  -2   68.13   14.30
   5   5   2   97.96   15.05
  -5   5  -2   80.30   15.04
   5   5   2   68.06   10.83
  -5   5  -2   54.84   11.33
   5  -5   2   57.10    9.55
   5  -5   2   81.17   12.30
   5   5   2  102.20   16.89
  -5   5  -2   65.24   10.30
   5  -5   2   70.83   11.91
   5   5   3 1346.69   70.18
   5   5   3 1425.49   64.42
  -5  -5  -3 1885.93   82.17
  -5   5  -3 1533.32   67.32
  -5  -5  -3 2015.07   69.94
   5   5   3 1168.05   66.51
   5   5   3 1452.18   62.57
  -5   5  -3 1533.04   69.09
   5   5   3 1687.13   78.58
   5  -5   3 1337.42   60.32
   5  -5   3 1599.57   68.01
   5   5   3 1332.48   67.80
   5   5   3 1090.51   65.54
  -5   5  -3 1451.45   62.88
  -5  -5  -3 1788.10   69.44
  -5   5  -3 1626.08   65.38
   5  -5   4  524.01   33.15
   5  -5   4  639.71   37.00
   5   5   4  478.63   35.29
   5   5   4  537.87   32.93
  -5  -5  -4  655.83   44.35
  -5  -5  -4  695.71   48.42
   5   5   4  434.23   35.20
   5   5   4  620.92   32.47
   5   5   4  731.39   46.41
   5  -5   4  471.74   30.26
   5   5   4  441.65   35.81
  -5   5  -4  548.22   33.41
  -5  -5  -4  658.67   36.82
  -5   5  -4  505.78   31.91
  -5   5  -4  553.03   35.27
  -5   5  -4  511.74   34.58
  -5  -5  -4  650.22   35.51
  -5   5  -5  163.34   20.21
   5   5   5  121.04   17.06
   5   5   5  131.96   14.19
  -5  -5  -5  147.53   19.83
   5   5   5  107.64   16.21
  -5  -5  -5  131.85   20.40
   5   5   5  113.25   16.48
  -5   5  -5  129.96   15.08
  -5  -5  -5  147.37   15.93
  -5   5  -5  128.97   16.23
   5   5   5  168.43   21.42
   5  -5   5  132.08   15.30
   5  -5   5  162.46   17.15
   5   5   5  149.76   17.80
  -5   5  -5  127.24   14.92
  -5  -5  -5  178.30   17.54
   5   5   5  107.31   16.43
  -5   5  -5  126.78   14.69
  -5   5  -6 1291.60   59.44
  -5   5  -6 1661.85   73.02
  -5  -5  -6 1554.58   71.89
  -5  -5  -6 1593.55   77.05
   5   5   6 1040.80   61.38
   5   5   6 1098.53   61.70
   5  -5   6 1457.67   61.28
   5   5   6 1353.51   63.17
  -5  -5  -6 1529.00   62.46
   5   5   6 1382.50   66.59
   5   5   6 1232.20   65.07
   5   5   7  931.25   49.85
   5   5   7  742.69   47.34
  -5  -5  -7 1000.71   57.58
   5   5   7  721.63   45.40
  -5  -5  -7  864.99   54.50
  -5   5  -7  858.98   48.29
  -5   5  -7 1027.64   54.26
  -5   5  -7  851.45   44.30
   5  -5   7  875.87   44.19
   5   5   7  890.33   46.07
  -5  -5  -7  951.54   45.98
  -5  -5  -8    3.82    4.79
   5   5   8    3.90    4.29
  -5  -5  -8   13.33    5.71
  -5  -5  -8    2.82    3.96
  -5   5  -8    5.62    4.42
  -5   5  -8    6.32    4.46
   5   5   8    8.96    4.75
  -5  -5  -8   12.09    4.75
  -5   5  -8    7.22    3.82
   5   5   9 1398.72   65.51
  -5  -5  -9 1540.85   71.27
  -5  -5  -9 1459.04   66.16
  -5   5  -9 1418.50   62.94
   5   5   9 1529.50   65.85
  -5  -5  -9 1612.66   62.67
  -5   5  -9 1359.58   61.17
  -5  -5 -10  832.22   45.89
  -5  -5 -10  779.19   42.01
  -5   5 -10  729.25   38.80
   5   5  10  822.41   41.61
  -5  -5 -10  858.96   39.72
  -5  -5 -10  909.18   37.66
  -5   5 -10  993.15   51.34
  -5   5 -10  731.67   38.88
  -5  -5 -11   84.59   10.92
   5   5  11  102.56   11.39
  -5   5 -11   78.04    9.49
  -5  -5 -11   96.26   10.27
  -5  -5 -11   97.89    9.38
  -5   5 -11   87.59   10.42
  -5   5 -11  122.11   15.33
  -5  -5 -12  851.68   32.75
  -5   5 -12 1072.97   46.22
   5   5  12  709.41   35.45
   5   5  12  919.28   37.37
  -5  -5 -12  845.19   34.99
   5   5  12  897.57   38.87
  -5   7   7  127.72    8.44
   5   7  -7  114.95    9.28
  -5  -7   7  123.43    9.65
  -5  -7   7  130.74    9.78
   5  -7  -7   95.78    6.74
   5   7  -7  124.70    9.71
   5   7  -6  122.69    9.19
   5   7  -6  136.38   11.11
   5  -7  -6  134.44    9.27
  -5  -7   6  145.73   11.10
   5  -7  -6  111.52    8.39
  -5  -7   5  634.18   22.75
   5   7  -5  552.20   19.60
   5   7  -5  615.36   23.68
   5  -7  -5  568.63   18.81
   5  -7  -5  666.55   22.84
   5  -7  -5  527.45   18.02
  -5   7   5  708.23   21.30
  -5  -7   4   59.02    7.29
   5   7  -4   58.43    6.94
   5  -7  -4   59.37    6.50
   5  -7  -4   62.79    7.34
   5  -7  -4   47.54    5.82
  -5   7   4   70.56    7.17
   5   7  -3 1512.37   59.16
   5   7  -3 1649.20   62.26
   5  -7  -3 1571.46   57.68
   5  -7  -3 1676.62   60.12
  -5  -7   3 1700.10   60.52
  -5   7   3 1841.93   59.33
  -5  -7   2  187.19   14.09
   5   7  -2  169.29   13.77
   5   7  -2  187.36   15.25
   5  -7  -2  189.97   13.41
   5  -7  -2  181.82   13.95
   5   7  -2  194.19   15.24
  -5   7   2  202.94   11.69
  -5   7   2  201.52   13.74
  -5   7   1  136.24   11.14
   5   7  -1  125.85   12.07
   5  -7  -1  112.26   10.76
   5   7  -1  116.87   11.31
  -5  -7   1  125.15   11.29
  -5   7   1  121.32    8.83
  -5  -7   0  459.19   23.76
   5  -7   0  421.52   22.98
   5   7   0  430.69   23.67
   5   7   0  430.41   24.14
   5   7   0  435.11   23.18
  -5   7   0  450.00   22.96
  -5   7   0  436.57   19.86
  -5  -7  -1  742.95   32.35
   5  -7   1  672.21   31.32
  -5  -7  -1  822.60   36.65
   5   7   1  681.69   31.87
   5   7   1  773.81   33.33
   5   7   1  711.70   30.98
   5  -7   1  630.57   29.44
  -5   7  -1  756.44   32.26
  -5   7  -1  711.97   28.20
  -5  -7  -2   69.03    7.99
  -5  -7  -2   79.86    9.78
   5   7   2   70.10    7.94
   5   7   2   75.97    8.23
   5   7   2   74.58    7.52
   5  -7   2   71.01    7.56
  -5   7  -2   74.54    6.80
  -5   7  -2   90.69   10.43
   5   7   3 1431.23   51.12
   5   7   3 1605.80   51.72
   5  -7   3 1217.64   48.30
  -5   7  -3 1354.99   47.95
   5  -7   3 1276.03   49.55
  -5   7  -3 1848.94   59.25
  -5  -7  -3 1612.51   57.11
  -5  -7  -4  463.77   13.93
  -5  -7  -4  458.22   21.11
   5   7   4  442.23   16.37
  -5  -7  -4  499.91   23.01
   5  -7   4  390.95   15.79
  -5   7  -4  528.65   22.80
   5  -7   4  367.21   13.75
  -5   7  -4  405.14   14.38
   5   7   5   43.85    4.73
   5  -7   5   40.07    5.08
  -5  -7  -5   53.70    7.29
   5  -7   5   39.05    4.04
  -5   7  -5   44.39    4.76
  -5   7  -5   57.52    7.39
  -5   7  -6  367.01   19.45
  -5  -7  -6  338.09   18.97
   5   7   6  330.61   18.33
  -6   0  17    0.72    3.44
   6   0 -17    0.95    2.60
  -6   0  17    4.31    3.95
  -6   0  16   14.54    8.15
  -6   0  16   14.59    7.26
   6   0 -16   26.67    7.17
  -6   0  16   16.13    5.86
  -6   0  15    2.69    6.40
  -6   0  15    3.51    4.54
   6   0 -15    1.65    3.21
  -6   0  15    2.50    3.74
  -6   0  14 1722.39   92.49
   6   0 -14 2174.13   90.24
  -6   0  14 1453.58   87.73
  -6   0  14 1537.41   93.48
  -6   0  14 1731.76   83.40
   6   0 -14 2018.66   73.43
   6   0 -13    0.60    2.14
  -6   0  13    3.46    3.11
  -6   0  13   -1.03    3.66
  -6   0  13    1.61    5.73
  -6   0  13    1.40    5.44
   6   0 -13    1.67    2.17
  -6   0  12 1714.73   82.43
   6   0 -12 1820.05   71.51
   6   0 -12 1686.29   68.26
  -6   0  12 1443.14   87.03
  -6   0  12 1540.70   93.54
   6   0 -12 1458.80   76.49
  -6   0  12 1451.66   85.29
   6   0 -12 1608.65   67.88
   6   0 -11    5.23    4.28
  -6   0  11    7.39    6.04
   6   0 -11    0.64    2.50
   6   0 -11   10.45    4.64
   6   0 -11    5.34    2.68
   6   0 -11   -1.05    3.72
  -6   0  11    2.73    6.12
  -6   0  11   19.77   11.98
  -6   0  11   -1.42    6.39
  -6   0  11    4.44    4.23
   6   0 -11    1.80    2.70
   6   0 -10  170.30   17.22
   6   0 -10  162.86   18.32
   6   0 -10  164.85   17.54
   6   0 -10  178.64   16.83
  -6   0  10  148.45   23.88
   6   0 -10  162.10   22.38
  -6   0  10  158.99   27.01
  -6   0  10  185.64   23.33
  -6   0  10  163.40   18.58
   6   0 -10  154.49   16.96
   6   0  -9    1.96    2.93
  -6   0   9    6.01    4.49
   6   0  -9    0.64    2.28
   6   0  -9    1.86    3.55
   6   0  -9    3.85    3.49
  -6   0   9   17.13    9.89
  -6   0   9    4.00    7.02
  -6   0   9    5.12    4.34
  -6   0   9    0.73    2.85
  -6   0   9   -1.26    5.64
   6   0  -9    0.79    2.81
   6   0  -9    8.45    6.35
  -6   0   8 3974.71  151.86
   6   0  -8 3244.10  118.86
  -6   0   8 3860.49  136.45
   6   0  -8 3353.58  118.97
   6   0  -8 3448.96  121.02
   6   0  -8 3297.84  117.80
  -6   0   8 3440.68  139.73
   6   0  -8 3699.66  129.08
  -6   0   8 3554.99  145.24
  -6   0   8 3553.61  151.57
  -6   0   8 3542.84  124.78
  -6   0   8 3077.17  121.75
   6   0  -8 2928.63  117.63
   6   0  -7    0.61    3.52
   6   0  -7    4.70    4.06
   6   0  -7    1.54    2.45
  -6   0   7    6.47    7.11
  -6   0   7    0.92    3.57
   6   0  -7    6.47    3.82
  -6   0   7    2.80    5.87
  -6   0   7    1.22    5.14
  -6   0   7    3.48    3.83
   6   0  -7   -0.75    2.65
  -6   0   7    1.43    3.01
  -6   0   6 1901.78   81.45
  -6   0   6 2465.72  108.04
   6   0  -6 1714.85   76.32
   6   0  -6 1988.95   77.39
   6   0  -6 1856.62   73.52
  -6   0   6 2381.86  104.06
   6   0  -6 1856.85   73.95
  -6   0   6 2304.78   92.29
  -6   0   6 2000.07   96.48
  -6   0   6 1993.92  100.69
  -6   0   6 2111.99   83.20
   6   0  -6 2153.72   84.82
   6   0  -6 2074.49   71.54
   6   0  -5    7.04    3.99
   6   0  -5    0.82    2.16
  -6   0   5   18.34   10.80
  -6   0   5    5.67    6.73
  -6   0   5    7.15    4.38
  -6   0   5    3.61    8.33
  -6   0   5   11.11    6.22
   6   0  -5    5.06    3.41
  -6   0   5   10.44    9.49
   6   0  -5    3.12    2.67
  -6   0   5    4.72    4.01
   6   0  -4  873.08   43.38
   6   0  -4  825.03   40.16
  -6   0   4  880.10   45.85
  -6   0   4 1069.49   65.48
  -6   0   4  960.21   60.55
  -6   0   4  923.05   51.79
  -6   0   4  818.92   44.08
  -6   0   4 1110.95   56.71
   6   0  -4  865.63   34.69
   6   0  -3    6.71    4.33
   6   0  -3    1.86    4.17
   6   0  -3    5.17    3.93
   6   0  -3    1.27    2.43
  -6   0   3    5.03    9.14
  -6   0   3    1.79    4.34
   6   0  -3    3.19    1.82
  -6   0   3   10.13    6.14
  -6   0   3   -3.70    9.38
  -6   0   3    3.55    5.98
  -6   0   3   11.09    5.32
  -6   0   2 7122.43  266.65
  -6   0   2 7596.39  240.82
   6   0  -2 8114.71  239.39
  -6   0   2 7508.39  255.27
   6   0  -2 7229.51  240.72
   6   0  -2 8547.92  261.47
  -6   0   2 8509.46  271.75
   6   0  -1    5.79    3.74
   6   0  -1    3.73    3.24
  -6   0   1    0.52    2.85
   6   0  -1    2.17    3.33
   6   0  -1    6.58    6.15
  -6   0   1    2.12    2.79
  -6   0   1    1.15    7.52
   6   0   0 3452.39  112.39
   6   0   0 3447.71  109.02
  -6   0   0 3900.84  139.80
  -6   0   0 4027.33  151.74
  -6   0   0 4345.17  145.96
  -6   0  -1   -0.78    4.48
   6   0   1    4.51    2.45
   6   0   1    4.78    2.98
  -6   0  -1   -4.01    6.75
   6   0   1    1.54    2.45
   6   0   1    2.57    3.46
  -6   0  -1    4.77    5.35
  -6   0  -2 2223.51  111.17
   6   0   2 2886.39  100.48
   6   0   2 2548.51  104.50
  -6   0  -2 2947.87  116.44
  -6   0  -2 2497.68  109.04
   6   0   2 3669.37   97.86
   6   0   2 3859.08  103.05
   6   0   3    1.78    3.46
   6   0   3    2.69    2.96
   6   0   3    7.74    2.88
   6   0   3    3.81    1.61
  -6   0  -3    3.98    4.73
   6   0   4 4675.64  136.90
  -6   0  -4 3216.98  140.03
  -6   0  -5    0.94    4.21
  -6   0  -5    2.78    5.09
   6   0   5    4.57    3.22
   6   0   5    4.53    3.82
  -6   0  -6  253.03   28.83
   6   0   6  304.13   24.99
  -6   0  -6  187.65   23.97
  -6   0  -6  159.00   22.72
   6   0   6  293.93   23.50
   6   0   6  353.40   22.28
  -6   0  -6  250.10   24.49
  -6   0  -7    2.47    5.88
  -6   0  -7    8.25    7.71
   6   0   7    9.55    5.34
  -6   0  -7    8.48    4.20
  -6   0  -7    1.75    4.81
  -6   0  -7    5.09    2.56
  -6   0  -7    5.19    6.52
   6   0   7    6.49    4.72
   6   0   8  647.14   37.60
   6   0   8  570.00   36.82
  -6   0  -8  497.10   37.44
  -6   0  -8  421.30   41.28
  -6   0  -8  375.05   26.65
  -6   0  -8  417.46   30.91
  -6   0  -8  417.20   40.02
  -6   0  -9    2.13    3.74
  -6   0  -9    1.37    6.14
   6   0   9    2.61    3.65
   6   0   9    6.88    6.04
   6   0   9   -0.65    2.90
  -6   0  -9    1.74    2.44
  -6   0  -9   -0.96    4.02
  -6   0  -9    7.17    7.88
  -6   0  -9    0.96    4.32
   6   0  10 4993.72  160.50
   6   0  10 4536.55  147.42
  -6   0 -10 3769.94  141.57
  -6   0 -10 3274.04  151.22
  -6   0 -10 3499.36  139.88
  -6   0 -10 3473.07  152.20
  -6   0 -10 3095.97  127.25
   6   0  11    9.18    5.76
   6   0  11    0.96    3.74
  -6   0 -11    2.67    5.61
  -6   0 -11    4.62    4.64
  -6   0 -11    1.37    3.77
  -6   0 -11    6.78    5.95
  -6   0 -11    2.52    3.16
   6   0  12  107.39   17.22
  -6   0 -12   37.50   12.03
  -6   0 -12   96.86   14.98
  -6   0 -12   41.38   12.55
  -6   0 -12   42.69   10.66
   6   0  12   63.18   13.18
  -6   0 -12   76.11   10.56
  -6   0 -13    2.22    4.32
  -6   0 -13    5.11    4.34
  -6   0 -13    2.15    4.18
  -6   0 -13    4.25    4.05
  -6   0 -14  851.48   56.27
  -6   0 -14  736.14   46.67
  -6   0 -15    2.86    4.55
   6   0  15    3.24    2.42
   6   0  16 2054.99   73.54
  -6   0 -16 1721.81   77.99
  -6  -2  17   84.59   11.89
  -6   2  17  105.19   12.58
   6  -2 -17  109.59    8.94
   6   2 -17  108.99    9.89
   6   2 -16   13.68    4.60
   6   2 -16   13.73    4.43
   6  -2 -16   14.60    4.00
  -6   2  16    4.91    4.69
  -6  -2  16   11.87    5.06
  -6   2  16    9.82    5.37
  -6  -2  16    8.61    4.26
  -6  -2  16    9.48    5.18
   6   2 -15  135.30   14.78
   6   2 -15   79.38   11.85
   6  -2 -15   99.82   12.00
  -6  -2  15   95.27   14.59
  -6   2  15   53.80   12.73
   6  -2 -15  129.28   14.54
  -6   2  15   96.29   16.15
  -6  -2  15   71.70   13.37
  -6  -2  15   95.66   16.49
  -6   2  15   74.74   11.80
   6   2 -14 1913.08   68.99
   6   2 -14 1203.52   60.26
   6  -2 -14 1422.63   60.31
  -6  -2  14 1063.75   68.05
  -6   2  14 1248.15   70.11
  -6   2  14 1040.76   58.80
  -6   2  14 1017.64   66.67
  -6  -2  14 1250.69   66.71
   6  -2 -14 1629.56   65.00
  -6  -2  14  955.82   62.91
   6  -2 -13   16.90    6.35
  -6   2  13    9.01    7.38
  -6  -2  13   13.97    7.25
  -6   2  13   15.80    7.96
  -6  -2  13    8.44    7.43
   6   2 -13   18.20    4.90
  -6   2  13   16.45    9.64
  -6  -2  13   28.57    8.29
   6  -2 -13   12.96    5.72
   6   2 -13   13.68    6.38
   6  -2 -13   20.08    6.69
  -6  -2  13   15.92    9.43
  -6   2  13   16.37    6.63
  -6   2  13   16.59    6.00
  -6  -2  13    7.21    5.74
  -6  -2  12 1883.22  102.29
  -6  -2  12 2048.16  106.79
  -6   2  12 2145.62  102.51
  -6   2  12 1836.45   89.59
  -6   2  12 1933.19  101.54
  -6  -2  12 2069.60   98.44
   6  -2 -12 2535.09   94.15
   6   2 -12 2065.75   82.96
   6  -2 -12 2298.84   81.28
  -6  -2  12 1716.95   97.23
   6   2 -12 2159.63   82.52
   6  -2 -12 2336.45   88.15
  -6   2  12 2167.07   91.31
   6  -2 -12 2199.91   98.97
  -6   2  12 1572.45   94.18
  -6  -2  12 1950.89   93.28
   6  -2 -12 2132.48   84.75
  -6  -2  12 1860.58   90.66
  -6  -2  12 2243.89  104.46
   6  -2 -11  202.02   20.94
  -6   2  11  132.77   18.33
  -6   2  11  135.75   18.64
   6  -2 -11  160.90   22.70
   6   2 -11  156.97   16.99
  -6  -2  11  124.20   23.19
  -6  -2  11  158.36   26.58
  -6   2  11  177.79   22.31
  -6   2  11  158.11   24.48
  -6  -2  11  165.18   23.72
  -6  -2  11  157.95   19.32
   6  -2 -11  192.46   21.52
   6  -2 -11  165.89   17.01
   6   2 -11  162.90   17.26
  -6  -2  11  139.53   23.96
   6  -2 -11  162.48   19.05
   6  -2 -11  195.98   21.48
   6  -2 -11  146.98   17.70
  -6  -2  11  182.32   23.56
  -6   2  11  126.30   22.02
  -6  -2  11  159.60   21.27
  -6  -2  11  207.81   27.32
   6   2 -10   25.98    6.64
  -6  -2  10   27.75    7.61
  -6   2  10   48.13   14.26
  -6  -2  10   49.65   12.69
   6  -2 -10   43.83   11.89
  -6  -2  10   20.51   10.36
  -6  -2  10   25.60   11.98
  -6   2  10   33.65   11.47
  -6  -2  10   27.23   10.43
   6  -2 -10   24.35    8.15
  -6  -2  10   29.70    8.70
  -6  -2  10   33.04   12.72
   6  -2 -10   31.20    7.88
   6  -2 -10   35.90    9.38
   6   2 -10   25.64    7.03
   6  -2 -10   31.91    9.08
   6  -2 -10   37.15    9.26
  -6   2  10   25.47    8.17
  -6   2  10   27.41    8.74
  -6  -2  10   29.65   10.86
  -6  -2  10   36.59   10.49
   6   2  -9  345.27   24.99
   6  -2  -9  495.93   33.95
  -6   2   9  429.11   34.39
  -6  -2   9  381.59   40.81
  -6  -2   9  387.52   41.90
  -6   2   9  457.91   39.90
  -6   2   9  407.02   38.00
  -6  -2   9  430.36   33.65
  -6  -2   9  430.90   39.64
  -6  -2   9  384.18   40.68
   6   2  -9  398.95   27.67
   6  -2  -9  356.76   30.20
   6   2  -9  404.15   26.71
   6  -2  -9  432.28   33.02
   6   2  -9  426.87   38.95
   6   2  -9  367.85   26.11
  -6  -2   9  385.89   28.83
  -6   2   9  332.69   35.53
  -6  -2   9  408.77   37.06
  -6  -2   9  349.11   32.65
  -6  -2   9  462.16   40.62
   6  -2  -8 3257.12  109.44
   6   2  -8 2441.49   93.83
  -6   2   8 2813.35  111.03
  -6  -2   8 2543.35  124.92
  -6   2   8 3074.33  120.39
  -6   2   8 2679.33  115.84
  -6  -2   8 2934.94  122.04
   6   2  -8 2491.82   94.02
  -6  -2   8 2851.96  109.38
   6   2  -8 2564.58   96.79
  -6  -2   8 2449.29  122.08
   6  -2  -8 2884.36  108.18
   6   2  -8 2574.35   96.96
   6   2  -8 2697.92   97.18
   6  -2  -8 3059.61  110.16
   6   2  -8 3239.23  126.04
   6   2  -8 2458.40   95.49
  -6  -2   8 2499.52  101.00
  -6   2   8 2235.77  112.81
  -6  -2   8 3022.49  119.75
   6   2  -8 2183.35   90.13
  -6  -2   8 2621.84  110.31
  -6  -2   8 2998.05  123.78
  -6  -2   7    4.53    6.78
  -6   2   7   30.43   10.13
  -6  -2   7    4.88    7.24
  -6   2   7    8.42    5.79
  -6  -2   7    4.17    4.39
  -6  -2   7    4.45    8.49
  -6   2   7    0.84    3.28
   6   2  -7    3.83    2.75
   6  -2  -7    0.81    4.09
   6   2  -7    4.40    3.27
   6   2  -7    1.64    2.46
   6   2  -7    1.11    2.32
  -6  -2   7    3.65    4.34
  -6   2   7   -1.19    4.62
  -6  -2   7    1.10    4.63
   6   2  -7    8.35    3.74
  -6   2   7    7.06    5.43
   6   2  -7    1.21    4.31
   6   2  -7    5.18    3.39
  -6  -2   7    3.82    4.80
   6  -2  -7   23.96    8.21
   6  -2  -7   11.22    5.75
  -6  -2   7    3.63    5.76
  -6  -2   6 2445.23  123.01
  -6   2   6 2995.55  114.57
  -6   2   6 2576.19  109.48
  -6  -2   6 2893.02  121.37
   6  -2  -6 2735.16  102.61
   6   2  -6 2598.63   94.74
  -6  -2   6 2512.62  123.78
  -6   2   6 2603.71  105.31
   6   2  -6 2559.37   95.12
   6   2  -6 2460.78   95.02
   6  -2  -6 3065.00  108.12
   6  -2  -6 2681.86  106.15
  -6  -2   6 2591.90  102.07
  -6   2   6 2423.87  112.86
  -6  -2   6 3162.09  119.82
   6   2  -6 2484.58   91.93
  -6   2   6 2994.60  110.23
  -6  -2   6 2673.05  110.04
   6   2  -6 2241.89   93.92
   6  -2  -6 2886.01  110.52
   6   2  -5  129.38   12.75
  -6   2   5  148.78   18.84
  -6   2   5  140.00   19.09
  -6  -2   5  128.36   23.81
  -6   2   5  108.23   16.90
  -6  -2   5  120.29   20.57
  -6  -2   5  148.41   22.32
   6   2  -5  135.49   13.83
   6  -2  -5  119.93   15.21
  -6  -2   5  147.35   24.76
  -6   2   5  145.49   18.12
   6   2  -5  124.63   13.51
   6   2  -5  129.04   14.09
   6   2  -5  129.16   14.31
   6  -2  -5  163.88   18.71
   6  -2  -5  139.39   17.31
  -6   2   5  135.77   20.74
  -6  -2   5  181.92   22.83
  -6  -2   5  122.33   16.08
   6  -2  -5  159.87   18.34
  -6  -2   5  143.15   19.84
   6  -2  -5  137.55   18.25
   6   2  -5  117.67   14.38
   6   2  -4  271.37   18.72
  -6   2   4  239.24   25.18
  -6  -2   4  270.80   31.17
  -6   2   4  311.68   27.92
  -6  -2   4  325.28   35.96
   6   2  -4  317.46   21.03
   6  -2  -4  265.12   22.19
  -6  -2   4  315.05   32.15
   6   2  -4  256.35   19.77
  -6   2   4  289.36   25.75
   6   2  -4  340.41   33.69
   6  -2  -4  256.52   23.25
  -6   2   4  236.84   27.92
  -6  -2   4  308.06   28.90
  -6  -2   4  298.90   25.28
  -6  -2   4  293.30   35.92
   6  -2  -4  259.93   23.54
   6   2  -4  230.61   21.19
   6   2  -3 1029.18   43.46
  -6   2   3 1219.06   60.20
  -6  -2   3 1157.00   69.57
  -6  -2   3 1280.89   73.73
   6  -2  -3  993.20   49.15
   6   2  -3 1019.74   44.91
  -6  -2   3 1195.88   65.83
   6   2  -3 1074.76   47.27
   6  -2  -3 1110.60   52.92
   6   2  -3 1287.24   71.48
   6   2  -3 1181.19   68.56
  -6   2   3  944.79   60.02
  -6  -2   3 1206.37   60.79
  -6  -2   3 1116.90   73.38
  -6   2   3 1191.87   58.02
   6  -2  -3  986.95   51.54
   6  -2  -3 1024.42   51.57
  -6   2   3 1048.60   46.05
   6  -2  -3 1030.33   55.30
   6   2  -3  958.53   50.13
  -6  -2   3 1080.99   45.17
  -6   2   2 3921.55  138.39
   6   2  -2 3636.49  119.31
   6  -2  -2 3236.25  123.77
  -6  -2   2 4336.22  159.29
  -6  -2   2 3916.24  145.48
   6   2  -2 3717.02  122.11
  -6  -2   2 3378.37  130.03
   6   2  -2 3823.99  155.03
   6   2  -2 4018.94  152.76
  -6   2   2 3350.87  141.74
  -6  -2   2 4729.78  144.83
  -6  -2   2 4799.11  171.57
  -6   2   2 4162.94  138.20
   6  -2  -2 3433.36  127.60
   6  -2  -2 3353.09  126.63
   6  -2  -2 3637.30  133.46
   6   2  -2 3342.24  127.95
  -6  -2   1   76.62   14.29
  -6   2   1   71.60   15.34
  -6   2   1   70.84   12.50
  -6   2   1   56.66   12.00
   6   2  -1   65.09    7.94
  -6  -2   1   76.94   14.50
   6   2  -1   66.54    8.95
  -6  -2   1   56.49   10.52
   6   2  -1   71.14   15.32
  -6  -2   1   74.64   16.58
  -6  -2   1   81.09   12.76
  -6   2   1   70.65   14.80
   6  -2  -1   53.13    9.90
   6  -2  -1   70.46   12.15
  -6   2   1   70.28   14.32
  -6  -2   1   70.57   11.68
   6  -2   0 3863.05  135.78
   6  -2   0 4052.44  141.85
   6   2   0 4120.72  140.88
  -6   2   0 3727.48  141.73
  -6  -2   0 3870.39  134.52
   6   2   0 4012.95  129.67
  -6  -2   0 4044.74  139.01
  -6  -2   0 4858.87  165.45
  -6  -2   0 5155.88  169.03
   6   2   0 3803.75  153.63
  -6   2   0 4127.70  144.97
  -6  -2   0 4138.36  136.31
  -6   2   0 3722.53  146.70
  -6  -2   0 4295.30  143.57
   6   2   0 3893.16  123.24
  -6   2   0 4004.36  140.66
  -6  -2  -1  415.46   36.91
  -6  -2  -1  531.27   31.98
  -6   2  -1  401.37   29.69
  -6  -2  -1  466.81   28.46
  -6   2  -1  443.22   32.84
   6   2   1  471.04   24.49
   6   2   1  494.16   27.86
  -6  -2  -1  525.28   41.33
   6   2   1  536.09   32.93
   6  -2   1  420.71   26.32
   6  -2   1  485.79   29.82
  -6   2  -1  470.87   28.66
  -6  -2  -1  459.29   30.90
   6   2   1  467.82   19.99
   6   2   1  437.31   36.55
   6  -2   1  462.61   27.29
  -6  -2  -1  513.28   40.90
   6   2   2  795.92   32.67
  -6  -2  -2  686.79   48.43
   6   2   2  778.29   36.33
  -6   2  -2  530.74   38.35
  -6  -2  -2  857.30   43.73
  -6  -2  -2  643.08   47.01
   6  -2   2  641.38   34.64
   6  -2   2  800.15   39.02
   6   2   2  804.32   42.34
   6  -2   2  892.87   41.76
  -6  -2  -3   33.81    9.61
  -6  -2  -3   65.38   11.78
  -6   2  -3   22.81    7.47
  -6  -2  -3   69.54   11.99
   6   2   3   53.20    8.17
  -6  -2  -3   44.39   11.90
  -6  -2  -3   53.10   12.80
   6  -2   3   45.48    7.59
   6   2   3   62.52    8.38
   6  -2   3   65.32    9.84
   6   2   3   55.52   10.26
   6  -2   3   54.36    8.26
   6   2   4 2910.65   95.50
   6  -2   4 2440.61   85.85
   6  -2   4 2671.74   87.09
  -6  -2  -4 2375.70  105.39
  -6  -2  -4 2012.07   96.33
  -6   2  -4 1557.14   87.34
  -6  -2  -4 3063.67  102.49
   6   2   4 2774.72  102.46
  -6   2  -4 1589.25   87.58
  -6  -2  -4 3156.76  103.89
   6   2   4 2957.21   86.45
  -6  -2  -4 1851.66   87.55
  -6  -2  -4 1865.24   82.50
   6   2   4 2804.62   99.42
  -6  -2  -4 2764.00  101.63
  -6   2  -4 2251.27   85.05
  -6  -2  -5  102.74   18.25
  -6  -2  -5   83.77   15.60
  -6   2  -5   57.46   11.86
   6   2   5  116.11   16.86
  -6   2  -5   64.57   12.85
  -6  -2  -5  109.39   16.35
  -6  -2  -5   65.75   11.85
  -6  -2  -5   69.50   10.42
  -6   2  -5   75.13   15.54
   6   2   5  105.24   15.08
   6  -2   5   89.06   10.99
  -6  -2  -5  120.61   17.16
  -6  -2  -5   84.74   17.02
  -6   2  -5   95.02   11.72
  -6  -2  -6  464.70   38.90
  -6  -2  -6  718.74   44.23
   6   2   6  658.27   42.81
  -6   2  -6  355.62   33.36
  -6  -2  -6  403.41   32.62
  -6  -2  -6  441.15   30.72
  -6  -2  -6  509.10   40.67
  -6   2  -6  491.02   41.81
   6   2   6  698.36   41.68
  -6  -2  -6  683.50   43.84
  -6  -2  -6  505.98   43.81
  -6   2  -6  442.02   29.29
  -6   2  -6  558.85   38.10
   6  -2   6  568.11   32.51
   6   2   7  297.01   28.22
  -6  -2  -7  157.54   20.00
  -6  -2  -7  180.05   19.25
  -6   2  -7  188.99   26.12
  -6  -2  -7  202.89   25.67
   6   2   7  300.57   27.30
   6  -2   7  227.18   20.53
  -6  -2  -7  246.88   26.12
  -6   2  -7  176.72   19.13
  -6   2  -7  198.11   18.66
  -6   2  -7  238.59   24.78
   6  -2   8 1401.14   63.29
  -6  -2  -8 1674.64   76.23
  -6   2  -8 1106.40   58.28
  -6   2  -8 1213.12   58.20
   6   2   8 1789.99   75.28
  -6  -2  -8 1244.94   72.75
  -6   2  -8 1097.54   71.93
   6   2   8 1804.89   77.14
  -6  -2  -8 1151.87   60.17
  -6  -2  -8 1196.19   64.57
   6   2   8 1865.58   71.34
  -6   2  -8 1071.85   57.85
  -6   2  -8 1140.94   56.88
   6  -2   9   97.61   14.48
  -6  -2  -9  100.70   17.36
  -6   2  -9   57.57   10.90
  -6   2  -9   69.81   11.64
   6   2   9  116.54   17.58
  -6  -2  -9   66.74   15.38
   6   2   9  114.16   17.28
  -6  -2  -9   77.16   13.09
  -6   2  -9   85.35   13.66
   6   2   9  118.53   15.47
   6   2  10 2307.23   88.01
  -6  -2 -10 1813.75   91.83
  -6   2 -10 1398.63   74.59
   6   2  10 2528.51   94.05
   6  -2  10 1934.64   81.36
  -6  -2 -10 2138.99   91.22
  -6   2 -10 1496.85   72.28
  -6   2 -10 1271.29   68.97
   6   2  10 2423.91   90.88
  -6   2 -10 2011.70   87.80
   6   2  11  185.90   25.50
  -6  -2 -11  167.05   24.00
  -6   2 -11  138.05   22.37
   6   2  11  221.82   22.58
   6   2  11  230.73   24.36
  -6  -2 -11  199.01   23.77
  -6   2 -11  183.79   22.69
  -6  -2 -11  170.62   20.69
   6   2  12  181.01   18.80
  -6  -2 -12  135.79   17.25
  -6  -2 -12  148.30   19.39
  -6   2 -12  163.08   20.67
  -6  -2 -12  124.43   19.73
  -6   2 -12   94.14   17.98
   6   2  12  210.75   22.17
  -6  -2 -13  359.36   26.88
  -6  -2 -13  401.01   31.01
  -6  -2 -13  335.02   32.56
  -6   2 -13  387.02   31.34
  -6  -2 -13  385.09   32.80
  -6   2 -13  291.33   29.94
  -6  -2 -14 1307.81   57.15
  -6  -2 -14 1335.12   64.82
  -6  -2 -14 1508.66   64.46
  -6   2 -14 1377.78   64.53
  -6  -2 -15   37.62    7.84
  -6   2 -15   34.29    8.04
  -6  -2 -15   41.34    6.37
   6   2  15   51.31    8.35
  -6   2 -15   42.66    8.37
  -6   4  15  285.25   21.50
   6  -4 -15  458.17   21.62
  -6  -4  15  382.06   22.57
  -6  -4  15  419.38   24.53
  -6   4  15  314.51   21.68
   6  -4 -14 1082.56   43.00
  -6   4  14  734.60   44.11
  -6  -4  14  907.76   45.26
  -6  -4  14  831.31   41.67
   6   4 -14 1329.31   50.08
  -6  -4  14  969.50   47.68
  -6   4  14  791.92   44.80
  -6   4  14 1134.70   41.78
  -6  -4  13    0.79    3.05
  -6   4  13    5.14    4.20
  -6  -4  13    2.15    3.41
  -6  -4  13   -0.60    2.71
   6  -4 -13    3.93    2.30
   6   4 -13    1.63    2.04
   6  -4 -13    1.02    2.43
  -6   4  13    0.77    3.01
  -6   4  13    4.88    3.37
   6   4 -13    2.88    2.53
  -6  -4  12  838.33   49.96
  -6  -4  12  846.56   47.03
   6   4 -12  803.42   40.43
   6  -4 -12  802.53   38.17
   6  -4 -12  899.57   43.00
   6  -4 -12  997.40   47.11
   6   4 -12  978.65   44.03
  -6  -4  12  832.93   51.10
  -6   4  12  726.91   46.55
  -6   4  12  751.59   48.18
  -6   4  12  752.23   42.39
   6   4 -11  688.33   38.46
   6  -4 -11  703.18   38.37
   6  -4 -11  782.66   42.23
  -6  -4  11  747.58   49.58
  -6  -4  11  694.27   45.32
   6   4 -11  926.31   45.29
   6  -4 -11  911.90   47.48
  -6   4  11  674.35   46.30
  -6  -4  11  767.26   50.94
  -6   4  11  694.06   46.21
  -6   4  10   35.13    9.97
  -6  -4  10   43.24   12.03
  -6  -4  10   42.85   11.20
   6   4 -10   43.81    7.57
   6  -4 -10   44.99    8.88
   6   4 -10   29.07    7.14
  -6   4  10   31.24    9.49
   6  -4 -10   44.57    9.08
   6  -4 -10   39.03    9.69
   6   4 -10   51.35   10.28
  -6   4  10   29.12    8.62
   6  -4 -10   54.27   10.53
  -6  -4  10   18.78    8.99
  -6  -4   9  731.05   52.18
  -6  -4   9  640.20   46.48
  -6   4   9  592.22   44.62
   6  -4  -9  626.10   40.40
   6   4  -9  615.50   36.99
   6   4  -9  618.05   36.29
   6  -4  -9  723.61   40.17
   6  -4  -9  546.02   39.34
   6   4  -9  765.64   44.53
  -6   4   9  623.88   43.86
  -6  -4   9  666.76   50.33
   6  -4  -9  725.69   43.01
  -6  -4   8 1791.15   91.45
  -6   4   8 1661.50   79.26
   6   4  -8 1582.63   68.60
  -6  -4   8 1808.38   90.93
  -6  -4   8 1728.48   84.93
  -6   4   8 1573.05   81.91
   6   4  -8 1688.04   71.06
   6   4  -8 1575.49   69.72
   6  -4  -8 1534.23   74.70
  -6   4   8 1816.82   68.27
   6  -4  -8 1837.50   80.34
  -6   4   8 1429.21   74.24
  -6  -4   7   17.12    9.13
   6   4  -7   23.45    6.56
  -6   4   7   15.18    6.67
   6  -4  -7   21.66    8.29
  -6  -4   7   19.77    8.87
  -6   4   7   30.55    9.81
  -6  -4   7   20.60    5.82
   6  -4  -7   20.67    7.91
   6   4  -7   19.02    6.13
   6   4  -7   28.58    7.35
   6  -4  -7   22.54    7.52
  -6   4   7   22.95    6.31
   6  -4  -7   15.92    7.00
  -6   4   7   21.87    7.50
   6   4  -6 1286.94   61.47
  -6   4   6 1194.29   63.91
   6  -4  -6 1561.04   74.01
  -6  -4   6 1410.28   76.66
  -6   4   6 1505.09   75.74
  -6  -4   6 1444.62   60.87
   6   4  -6 1350.76   61.98
   6   4  -6 1349.90   63.06
   6  -4  -6 1516.30   73.92
  -6  -4   6 1695.26   85.66
  -6   4   6 1353.59   69.66
   6  -4  -6 1219.37   64.35
  -6   4   6 1391.84   60.05
   6  -4  -6 1433.04   71.17
   6   4  -6 1600.45   83.50
   6   4  -6 1288.64   62.28
  -6   4   5 1277.65   64.49
   6   4  -5 1396.13   64.10
   6  -4  -5 1547.47   74.12
  -6  -4   5 1529.43   80.27
  -6  -4   5 1553.66   63.48
   6   4  -5 1372.04   62.53
   6  -4  -5 1534.00   74.67
   6  -4  -5 1305.41   65.87
  -6   4   5 1413.90   61.19
   6   4  -5 1612.05   85.56
   6   4  -5 1418.96   64.77
   6  -4  -5 1275.79   68.70
  -6  -4   5 1664.78   85.73
  -6   4   5 1337.87   69.06
  -6   4   4   32.80    9.11
   6   4  -4   25.08    7.19
   6  -4  -4   31.75    9.39
  -6  -4   4   18.29    9.09
   6   4  -4   17.35    5.93
  -6   4   4   26.22    9.07
  -6  -4   4   28.57    7.05
  -6   4   4   16.37    5.37
  -6  -4   4   15.99    7.79
   6   4  -4   17.99    9.08
  -6  -4   4   44.17   10.37
  -6  -4   4   16.22    7.28
   6  -4  -4   18.57    7.54
   6   4  -4   14.97    4.99
   6  -4  -4   41.46   11.09
  -6   4   3  708.35   44.23
   6   4  -3  661.09   40.32
   6  -4  -3  683.85   45.03
  -6  -4   3  796.66   54.44
   6   4  -3  596.71   39.16
  -6   4   3  754.42   48.27
   6   4  -3  695.83   38.42
  -6  -4   3  751.44   40.03
  -6  -4   3  719.74   39.68
  -6  -4   3  696.54   43.71
   6   4  -3  678.18   40.41
   6  -4  -3  672.80   40.43
  -6  -4   3  717.94   46.32
   6   4  -3  711.65   55.69
   6   4  -3  758.42   50.21
  -6  -4   3  817.01   50.59
  -6   4   3  626.57   36.52
   6  -4  -3  705.40   46.66
  -6   4   2 1964.94   86.10
  -6  -4   2 2566.82   93.63
  -6  -4   2 2529.85  105.14
  -6  -4   2 2396.87   97.09
   6  -4  -2 2435.58   95.19
  -6  -4   2 2376.33  100.08
   6   4  -2 2710.56  120.50
   6   4  -2 2332.14   93.12
   6   4  -2 2648.14  110.83
  -6   4   2 2511.43   99.24
   6  -4  -2 2436.71  102.37
  -6  -4   2 2743.54  115.70
  -6   4   2 2635.13  104.74
   6   4  -2 2221.88   87.79
  -6  -4   2 2540.52   88.53
   6   4  -2 1999.02   93.26
  -6  -4   1   18.62    6.21
  -6  -4   1   13.56    7.38
   6   4  -1   12.92    8.21
   6  -4  -1   14.16    5.93
  -6  -4   1   10.66    5.68
   6   4  -1    7.86    4.04
   6   4  -1   15.07    8.23
  -6  -4   1    9.44    5.63
   6   4  -1    9.33    5.23
  -6   4   1   14.59    5.98
   6   4  -1   12.79    5.54
   6   4  -1   14.27    6.54
   6   4  -1   12.45    4.60
  -6   4   1   21.39    8.01
  -6  -4   1   10.44    7.23
  -6   4   1   12.60    4.77
   6  -4  -1   20.32    7.48
  -6  -4   0  856.59   44.20
  -6  -4   0  773.75   49.11
   6  -4   0  797.69   44.93
   6   4   0  805.95   55.53
  -6  -4   0  678.55   42.41
   6   4   0  733.60   41.12
  -6  -4   0  811.21   47.67
   6   4   0  721.18   41.37
  -6   4   0  770.03   43.44
   6   4   0  752.16   43.37
  -6  -4   0  922.10   60.12
   6   4   0  610.85   43.84
   6   4   0  817.05   38.90
  -6  -4   0  956.07   55.91
  -6  -4   0 1063.93   51.19
   6  -4   0  920.21   51.93
   6  -4   1 2117.86   86.13
   6   4   1 1765.28   78.30
  -6  -4  -1 2307.55  102.26
   6   4   1 1448.26   79.70
   6   4   1 2012.23   71.72
  -6  -4  -1 2183.58   94.28
  -6  -4  -1 1973.27   78.91
   6  -4   1 1832.24   78.59
   6   4   1 1849.33   90.81
   6   4   1 1876.12   76.34
  -6   4  -1 1777.63   75.63
  -6  -4  -1 2283.48   84.56
  -6  -4  -2   74.35   16.30
   6   4   2   54.22   10.18
  -6  -4  -2   77.25   12.03
  -6   4  -2   89.29   13.45
   6   4   2   78.39   14.30
  -6  -4  -2   97.84   16.60
  -6   4  -2   50.13    9.25
   6   4   2   74.89   14.91
   6   4   2   70.20   10.57
  -6   4  -2   63.07   10.47
   6  -4   2   64.72   11.78
   6   4   3  176.10   17.89
  -6  -4  -3  202.74   26.47
  -6   4  -3  179.73   19.02
  -6  -4  -3  198.00   19.83
   6   4   3  162.59   21.20
   6   4   3  203.82   17.99
   6   4   3  151.08   19.60
  -6   4  -3  164.25   17.53
  -6   4  -3  164.59   16.88
  -6  -4  -3  200.53   19.20
   6  -4   3  168.86   17.55
   6  -4   3  197.61   19.84
  -6   4  -4 1607.08   73.46
  -6   4  -4 2022.81   80.16
  -6   4  -4 1563.34   73.75
   6   4   4 1928.20   75.97
  -6  -4  -4 2121.17   97.96
  -6  -4  -4 1971.46   96.63
   6   4   4 1627.17   82.80
   6   4   4 2040.63   74.12
   6   4   4 1824.06   83.20
   6  -4   4 1843.19   75.88
   6  -4   4 2272.67   82.48
  -6   4  -4 1938.82   79.68
  -6  -4  -4 2063.08   81.82
  -6  -4  -5  193.98   20.79
  -6   4  -5  160.58   18.04
  -6   4  -5  148.18   16.77
  -6   4  -5  194.26   19.73
  -6   4  -5  241.05   23.95
   6   4   5  222.86   17.16
   6   4   5  206.36   22.30
   6  -4   5  172.85   17.78
  -6  -4  -5  199.00   26.00
   6   4   5  200.85   17.89
  -6  -4  -6  189.33   25.59
   6   4   6  252.92   18.83
  -6  -4  -6  232.92   22.85
   6   4   6  180.48   21.46
  -6  -4  -6  179.43   24.01
   6  -4   6  230.38   20.37
  -6   4  -6  183.26   19.51
  -6   4  -6  269.44   25.19
  -6   4  -6  184.80   18.87
  -6   4  -6  191.33   19.93
   6   4   6  228.54   23.40
  -6  -4  -7  698.95   42.06
   6   4   7  593.61   40.80
  -6  -4  -7  579.28   44.78
  -6  -4  -7  580.54   40.15
   6  -4   7  676.73   37.46
   6   4   7  695.85   39.41
  -6   4  -7  564.61   37.12
  -6   4  -7  755.89   44.50
  -6   4  -7  549.40   35.94
  -6  -4  -7  706.11   39.72
  -6   4  -7  656.69   39.73
   6   4   7  731.70   43.51
  -6  -4  -8  538.60   36.45
   6   4   8  500.35   36.27
  -6  -4  -8  534.46   41.25
  -6  -4  -8  489.37   35.90
   6  -4   8  563.79   33.27
   6   4   8  630.30   35.83
  -6  -4  -8  616.59   37.04
   6   4   8  550.92   38.20
  -6   4  -8  533.88   35.54
  -6   4  -8  577.80   43.31
   6   4   8  611.47   38.01
  -6   4  -8  504.02   33.73
  -6  -4  -9   36.26    8.97
   6   4   9   36.28    8.53
  -6  -4  -9   27.50    7.92
  -6  -4  -9   32.74    9.59
  -6   4  -9   36.60    8.73
  -6  -4  -9   35.18    8.35
   6   4   9   33.83    8.79
   6   4   9   33.24    8.06
  -6   4  -9   36.28    8.06
   6   4   9   44.46    9.90
   6   4  10 1561.26   70.01
  -6  -4 -10 1471.48   72.22
  -6  -4 -10 1420.68   66.66
  -6  -4 -10 1620.91   68.35
   6   4  10 1734.39   71.33
  -6   4 -10 1294.85   61.22
  -6  -4 -10 1836.05   69.79
  -6   4 -10 1569.39   68.25
  -6  -4 -11  469.67   30.07
   6   4  11  509.58   31.78
  -6  -4 -11  433.01   29.51
   6   4  11  475.04   31.79
  -6   4 -11  552.45   37.73
  -6  -4 -11  553.27   31.70
  -6   4 -11  453.22   30.26
  -6  -4 -12  124.76   13.04
   6   4  12  134.13   14.43
  -6  -4 -12  123.23   12.89
  -6   4 -12   95.99   12.19
  -6   4 -12  144.77   17.42
   6   4  12  142.04   13.87
  -6  -4 -13  552.12   28.52
   6   4  13  555.61   30.23
   6   4  13  643.30   29.29
  -6  -4 -13  630.99   29.60
  -6   4 -13  731.86   38.59
   6   4  13  688.94   32.62
   6  -6 -10   14.51    3.44
  -6   6  10    4.17    2.23
   6   6 -10    8.74    2.78
  -6  -6  10    5.93    2.29
   6  -6 -10    5.04    1.79
   6   6 -10   11.06    2.95
  -6   6  10    9.81    3.29
   6   6 -10   11.66    3.51
   6   6  -9  968.88   38.08
  -6   6   9  838.85   31.85
  -6  -6   9  908.54   39.49
   6  -6  -9  865.46   33.23
  -6  -6   9  814.45   35.47
   6   6  -9  736.85   34.05
   6  -6  -9  895.62   35.24
   6   6  -9  889.31   39.07
  -6  -6   9  857.25   36.24
  -6   6   9  847.07   39.68
   6   6  -8  508.46   26.86
  -6   6   8  478.78   21.98
  -6  -6   8  433.77   26.44
   6   6  -8  416.56   24.35
   6  -6  -8  448.68   22.80
  -6  -6   8  446.82   24.25
   6  -6  -8  463.69   24.07
   6   6  -8  456.93   26.68
  -6  -6   8  447.33   24.82
  -6   6   8  444.14   27.11
   6   6  -7   47.40    6.75
   6   6  -7   48.37    7.84
  -6  -6   7   54.90    8.00
   6  -6  -7   57.66    8.24
  -6   6   7   54.83    9.08
   6   6  -7   48.25    8.43
  -6   6   7   47.34    6.62
  -6  -6   7   53.10    8.31
   6  -6  -6  484.39   28.83
   6   6  -6  422.02   26.01
  -6  -6   6  427.50   25.82
   6  -6  -6  442.20   26.38
  -6   6   6  399.48   26.49
   6   6  -6  493.07   29.37
  -6   6   6  441.81   24.10
  -6  -6   6  423.04   26.78
   6  -6  -5 1316.74   55.03
   6   6  -5 1146.25   51.11
   6   6  -5 1105.88   50.88
   6  -6  -5 1238.52   52.40
  -6  -6   5 1180.00   51.13
  -6   6   5 1232.07   51.64
   6   6  -5 1222.36   54.36
  -6   6   5 1203.65   49.15
  -6  -6   5 1223.49   53.96
   6  -6  -4   98.80   12.62
   6   6  -4  112.83   12.63
  -6  -6   4  115.12   12.79
  -6   6   4  113.73   11.86
   6   6  -4  123.09   13.91
   6   6  -4  118.93   13.55
  -6  -6   4  121.27   15.14
  -6  -6   4  120.32   14.32
  -6  -6   4  114.66   12.31
   6  -6  -3  567.00   33.40
   6   6  -3  608.51   32.41
  -6  -6   3  572.04   32.19
  -6   6   3  577.77   30.96
   6   6  -3  602.55   33.12
  -6  -6   3  606.15   35.67
  -6  -6   3  577.00   32.06
   6   6  -3  586.96   34.24
  -6  -6   3  639.42   37.50
  -6  -6   2  361.77   24.57
   6   6  -2  413.91   25.57
   6  -6  -2  326.85   24.52
   6   6  -2  412.25   24.85
   6   6  -2  413.75   27.01
  -6  -6   2  364.33   24.65
  -6  -6   2  415.98   29.26
   6   6  -2  369.93   26.21
  -6   6   2  355.82   23.38
  -6   6   2  421.75   25.49
   6  -6  -1  287.64   20.65
   6  -6  -1  332.55   23.79
   6   6  -1  412.70   23.48
   6   6  -1  356.64   24.91
  -6  -6   1  352.85   23.98
  -6   6   1  398.85   24.62
   6   6  -1  362.01   26.13
  -6  -6   1  369.89   27.51
  -6   6   1  320.25   22.20
   6   6  -1  363.97   26.79
   6   6   0  351.03   27.20
   6   6   0  381.63   25.23
   6  -6   0  312.90   21.32
   6   6   0  372.54   26.40
  -6  -6   0  408.14   28.79
  -6   6   0  370.80   23.60
  -6   6  -1 1612.33   57.18
   6  -6   1 1192.82   53.27
  -6  -6  -1 1512.25   52.62
   6   6   1 1334.88   56.96
  -6  -6  -1 1559.14   64.90
   6   6   1 1386.13   59.94
   6   6   1 1376.01   64.02
   6   6   1 1206.26   58.68
  -6  -6  -2  136.84   17.55
  -6   6  -2  122.60   12.10
   6  -6   2  100.16   11.04
   6   6   2   95.75   10.96
   6   6   2  104.76   14.53
   6   6   2  112.36   14.18
  -6  -6  -2  145.50   16.25
   6   6   2  134.35   14.14
  -6  -6  -3  416.27   28.52
   6   6   3  342.77   24.20
  -6  -6  -3  521.18   34.55
  -6   6  -3  428.68   26.67
   6   6   3  443.00   24.25
   6   6   3  399.07   29.29
   6   6   3  389.91   27.93
   6  -6   3  336.19   22.01
  -6   6  -3  421.55   24.33
  -6   6  -3  478.52   30.32
   6   6   4  445.66   29.47
  -6  -6  -4  605.79   37.59
  -6   6  -4  588.79   29.48
   6  -6   4  488.53   26.81
   6   6   4  557.97   26.70
   6   6   4  557.77   34.75
   6   6   4  485.40   32.06
  -6   6  -4  667.10   35.73
  -6  -6  -4  572.30   33.37
  -6   6  -5  538.02   31.07
  -6  -6  -5  500.59   32.54
   6   6   5  425.27   28.51
   6  -6   5  377.05   22.87
  -6   6  -5  471.43   25.60
  -6  -6  -5  553.88   34.29
   6   6   5  409.32   27.27
  -6   6  -6  184.34   16.65
  -6  -6  -6  179.24   18.17
   6   6   6  136.92   14.35
   6   6   6  143.96   10.47
  -6  -6  -6  146.42   15.94
  -6  -6  -6  152.94   13.64
  -6   6  -6  142.52   12.76
   6  -6   6  116.74   11.00
   6   6   6  145.65   15.06
  -6  -6  -6  179.17   12.93
  -6  -6  -7  854.75   25.33
  -6  -6  -7  774.97   32.64
  -6   6  -7  733.69   26.37
  -6   6  -7  801.42   33.99
   6  -6   7  619.48   21.79
   6   6   7  743.18   30.26
   6   6   7  692.78   29.35
  -6  -6  -8  301.80   15.71
  -6  -6  -8  253.62   18.62
   6  -6   8  222.45   14.09
   6   6   8  259.81   18.18
   6   6   8  291.97   19.09
  -6   6  -8  260.39   16.50
  -6   6  -8  307.30   21.36
  -6   6  -9  238.83   17.21
  -6   6  -9  200.66   13.17
   6   6   9  227.09   15.36
  -6  -6  -9  226.10   12.44
   7   1 -17   69.45    8.47
   7  -1 -17   90.55    8.90
  -7   1  17   54.45   10.11
  -7  -1  17   82.12   11.39
  -7   1  17   92.40   11.34
  -7  -1  16  360.77   30.62
  -7   1  16  434.71   30.84
  -7   1  16  354.24   31.40
  -7  -1  16  411.08   31.14
   7   1 -16  475.77   28.27
   7  -1 -16  486.09   26.82
   7  -1 -15   41.95    8.51
   7   1 -15   34.38    8.44
  -7  -1  15   35.83   10.89
  -7   1  15   26.51    9.81
  -7  -1  15   32.38    9.85
  -7   1  15   30.14    9.39
  -7   1  15   46.08    8.33
   7   1 -14 1383.56   65.94
   7  -1 -14 1466.33   64.50
  -7  -1  14  995.60   67.81
  -7   1  14 1089.07   55.46
  -7   1  14 1266.48   74.87
  -7  -1  14 1237.80   70.47
  -7  -1  14 1442.24   65.13
  -7   1  14 1225.59   67.94
   7  -1 -14 1296.62   52.53
   7   1 -14 1357.38   56.39
  -7   1  13   43.11   13.73
  -7  -1  13   42.72   12.66
   7  -1 -13   54.27   10.22
  -7  -1  13   45.55   10.94
  -7   1  13   45.17   12.59
  -7  -1  13   25.13    9.48
   7  -1 -13   42.00    8.04
   7   1 -13   31.59    7.34
  -7   1  13   32.47   11.69
  -7  -1  13   42.70   12.59
   7  -1 -13   37.00    9.46
  -7   1  13   34.15   12.00
  -7   1  13   32.36    9.94
  -7  -1  13   33.56   12.60
  -7   1  13   34.63    8.87
   7  -1 -13   39.54    6.97
   7   1 -13   40.02    7.51
  -7  -1  13   34.80   11.38
  -7   1  12   56.65   15.93
  -7  -1  12   57.82   15.45
   7  -1 -12   54.09   10.57
  -7   1  12   45.36   12.64
  -7  -1  12   55.46   12.31
   7   1 -12   39.63    8.53
  -7  -1  12   42.14   13.21
   7  -1 -12   73.62   11.32
   7  -1 -12   52.51    9.36
  -7  -1  12   45.78    9.66
  -7  -1  12   54.85   14.47
  -7   1  12   64.36   16.52
   7  -1 -12   39.04   10.68
  -7   1  12   40.21   14.05
  -7   1  12   45.18   12.52
  -7  -1  12   39.84   14.49
  -7  -1  12   46.44   14.53
  -7   1  12   54.78   11.79
   7  -1 -12   55.12    9.02
   7   1 -12   48.80    8.81
  -7   1  12   47.40   10.26
  -7  -1  12   46.68   12.93
   7   1 -11  139.20   15.45
  -7   1  11  160.66   19.26
  -7  -1  11  148.73   17.68
   7  -1 -11  141.88   20.97
  -7   1  11  140.81   22.46
  -7  -1  11  121.30   23.93
  -7   1  11  158.52   26.14
  -7  -1  11  174.12   28.89
  -7   1  11  161.40   20.34
  -7   1  11  165.36   26.38
  -7  -1  11  150.15   24.67
   7  -1 -11  156.61   17.95
  -7   1  11  185.82   25.42
  -7  -1  11  140.91   20.07
   7   1 -11  160.26   17.01
   7  -1 -11  162.58   17.46
  -7  -1  11  127.22   22.43
   7   1 -11  172.32   17.20
   7  -1 -11  165.26   18.53
   7  -1 -11  174.30   15.95
  -7   1  11  171.93   26.80
  -7  -1  11  159.94   25.18
   7  -1 -11  122.48   15.78
  -7  -1  11  162.80   24.43
   7   1 -10 1478.05   82.75
  -7   1  10 1190.23   73.00
  -7  -1  10 1327.05   84.10
  -7   1  10 1233.24   78.97
  -7  -1  10 1382.32   89.18
  -7   1  10 1436.34   70.18
  -7   1  10 1515.17   85.89
  -7  -1  10 1530.74   85.76
   7  -1 -10 1436.25   64.17
  -7   1  10 1511.59   79.44
  -7  -1  10 1461.75   73.32
   7   1 -10 1380.80   61.40
   7  -1 -10 1479.89   64.68
  -7  -1  10 1189.31   76.81
   7  -1 -10 1405.42   59.98
   7   1 -10 1443.76   61.86
   7  -1 -10 1496.51   65.46
   7   1 -10 1260.79   57.34
  -7   1  10 1280.70   66.41
  -7  -1  10 1347.94   65.26
   7   1 -10 1192.92   64.92
   7   1 -10 1336.06   62.33
  -7   1  10 1495.55   86.54
  -7  -1  10 1598.53   87.34
   7  -1 -10 1301.29   62.82
  -7  -1  10 1581.19   83.69
  -7   1   9   28.84    8.55
   7  -1  -9   43.86    8.40
  -7   1   9   36.10   12.52
  -7   1   9   48.41   12.19
  -7  -1   9   40.45   14.81
  -7  -1   9   38.19   13.88
  -7   1   9   36.24    9.82
  -7   1   9   38.43   13.22
  -7  -1   9   38.75   13.90
   7  -1  -9   32.79    8.07
  -7  -1   9   42.07   11.18
  -7   1   9   62.57   14.44
   7  -1  -9   50.46   10.22
  -7  -1   9   42.56   13.30
   7   1  -9   42.37    8.48
   7  -1  -9   41.47    9.10
   7   1  -9   38.50    7.56
  -7  -1   9   40.48    9.77
  -7   1   9   50.62   15.17
  -7  -1   9   47.17   15.02
   7   1  -9   43.15    9.29
   7  -1  -9   43.36    9.39
  -7  -1   9   38.87   12.39
   7  -1  -9   51.96   13.22
   7   1  -9   48.48   14.00
   7   1  -9   36.05    6.89
   7  -1  -9   40.43   10.86
   7  -1  -8 2476.02   84.12
  -7  -1   8 2121.20  112.15
  -7   1   8 1798.53   98.95
  -7   1   8 2208.48   93.60
  -7   1   8 2362.31  109.94
  -7  -1   8 2270.22  110.75
   7  -1  -8 2085.25   83.52
  -7   1   8 2473.97  105.63
  -7  -1   8 2215.41   97.30
   7  -1  -8 2230.38   87.56
   7   1  -8 2042.04   82.41
  -7  -1   8 1869.75  100.84
   7   1  -8 2006.71   81.21
   7  -1  -8 2351.54   89.24
   7  -1  -8 2256.17   86.24
   7   1  -8 2321.56  107.70
   7  -1  -8 2247.01   99.84
  -7  -1   8 2167.53   90.93
  -7   1   8 1979.54   88.01
   7   1  -8 1917.58   83.88
  -7   1   8 2076.48  107.30
  -7  -1   8 2629.65  117.86
   7  -1  -8 1815.19   83.54
  -7  -1   8 2136.16  103.42
   7  -1  -8 2295.51   96.57
   7   1  -8 2186.72   88.72
   7  -1  -7    7.50    3.64
  -7   1   7   10.76    5.18
  -7   1   7    6.53    6.22
  -7  -1   7   12.90    8.52
   7  -1  -7    9.71    4.45
  -7  -1   7    5.89    6.04
  -7  -1   7    3.80    5.69
   7  -1  -7    9.39    4.65
   7   1  -7    7.25    4.16
   7  -1  -7    7.28    3.86
   7   1  -7    6.59    3.70
  -7  -1   7   16.10    9.56
  -7   1   7    5.25    4.40
  -7  -1   7   13.82    6.19
  -7  -1   7    1.44    7.60
  -7   1   7   15.48    8.94
   7  -1  -7    9.69    5.04
   7   1  -7    6.12    4.33
   7  -1  -7    5.94    4.45
   7   1  -7    7.33    6.43
   7  -1  -7    7.07    5.25
  -7  -1   7   16.05    8.76
  -7  -1   6   17.33   10.02
  -7   1   6   18.04    7.37
  -7   1   6   15.21    8.55
  -7  -1   6   18.84   10.30
  -7  -1   6    9.63    7.42
   7   1  -6   15.86    5.21
   7   1  -6   14.21    4.83
   7  -1  -6   18.55    6.45
   7  -1  -6   16.03    5.48
  -7  -1   6   20.87    7.56
  -7   1   6   20.81   11.24
  -7  -1   6   45.16   13.82
   7  -1  -6   39.31    7.21
  -7   1   6   31.77    7.97
  -7  -1   6   19.54    9.90
   7  -1  -6   14.00    6.97
   7  -1  -6   50.65   11.14
  -7  -1   5  374.26   40.63
  -7   1   5  393.28   31.57
  -7  -1   5  417.05   34.50
  -7   1   5  385.00   37.39
  -7   1   5  416.27   35.22
  -7  -1   5  376.95   35.32
   7   1  -5  351.85   23.88
   7   1  -5  342.78   24.25
   7  -1  -5  357.46   26.15
   7  -1  -5  359.32   25.07
   7   1  -5  412.38   34.42
  -7  -1   5  378.21   29.58
  -7  -1   5  438.12   41.29
  -7   1   5  353.11   27.95
  -7   1   5  378.56   38.89
   7   1  -5  375.81   27.58
  -7  -1   5  399.16   37.75
  -7   1   5  416.81   33.01
   7  -1  -5  354.18   31.32
   7  -1  -5  356.86   30.07
  -7  -1   4 4337.91  178.55
  -7   1   4 4441.44  155.78
  -7   1   4 3939.29  167.07
  -7   1   4 4748.72  165.16
  -7  -1   4 4051.69  157.05
  -7  -1   4 3986.29  159.94
   7   1  -4 4043.25  140.60
   7   1  -4 4444.57  142.46
   7  -1  -4 4216.11  142.55
   7   1  -4 4724.87  162.96
  -7  -1   4 4694.92  174.80
  -7  -1   4 4314.46  151.94
  -7   1   4 4138.57  171.60
   7   1  -4 4802.82  150.34
   7  -1  -4 4349.72  147.15
  -7   1   4 4536.32  156.85
  -7  -1   4 4431.90  173.26
  -7   1   3    1.30    3.27
  -7  -1   3    1.45    8.91
  -7   1   3    2.64    7.27
  -7   1   3    3.00    5.26
  -7  -1   3    4.85    5.76
   7   1  -3    4.43    3.22
   7   1  -3    3.41    2.79
   7  -1  -3    1.87    2.97
  -7   1   3    2.44    4.47
  -7  -1   3    4.22    4.18
  -7  -1   3    3.68    6.15
  -7   1   3    9.29    8.16
   7   1  -3    0.92    4.62
   7   1  -3    3.58    3.90
   7  -1  -3    2.77    3.05
   7   1  -2 4410.93  144.81
   7   1  -2 4650.10  144.32
   7   1  -2 5344.74  155.42
   7  -1  -2 4516.88  149.31
   7  -1  -2 4086.16  144.70
  -7  -1   2 5441.60  181.99
  -7   1   2 4445.62  152.72
  -7   1   2 4774.94  181.06
  -7   1   2 4746.61  170.39
   7  -1  -2 4120.21  156.69
   7   1  -2 4512.11  164.11
   7   1  -1  237.31   16.86
   7   1  -1  286.30   21.41
   7  -1  -1  254.48   19.28
  -7  -1   1  317.48   31.24
  -7  -1   1  333.35   35.87
  -7   1   1  259.03   34.14
  -7   1   1  259.46   21.23
  -7  -1   1  219.97   20.76
  -7   1   1  324.20   35.52
  -7  -1   1  363.76   34.16
   7   1  -1  273.20   31.67
  -7  -1   1  277.77   32.18
   7   1  -1  255.03   25.82
   7  -1  -1  238.58   22.95
  -7  -1   1  153.05   19.29
   7   1   0   17.39    7.19
   7  -1   0   13.15    5.94
  -7   1   0   17.04    8.47
  -7  -1   0   27.76    9.25
  -7   1   0   20.56    6.20
  -7  -1   0   17.31    6.88
   7   1   0   18.54    4.31
  -7  -1   0    9.28    4.94
  -7  -1   0   22.29    8.82
   7  -1   0   23.08    4.80
  -7   1   0    8.94    8.13
  -7  -1   0   24.14    9.71
  -7   1   0   21.06    5.93
  -7   1   0   22.64    9.40
   7   1   0   21.03    5.70
   7  -1   0   17.20    4.98
  -7  -1   0   24.34    8.44
  -7  -1  -1   49.50   10.57
   7  -1   1   88.35    9.98
  -7  -1  -1   72.73   12.36
  -7   1  -1   70.15   13.74
  -7  -1  -1   73.96   11.14
  -7  -1  -1   53.27   12.12
   7  -1   1   71.51    7.89
  -7   1  -1   76.03   10.55
   7  -1   1   79.91   12.86
   7  -1   1   62.21    7.48
  -7  -1  -1   66.59   14.97
   7   1   1   73.75   13.64
  -7   1  -1   87.76   10.94
  -7  -1  -1   82.93   14.97
  -7   1  -1   77.98   16.29
   7  -1   2 6461.30  190.08
   7   1   2 7544.10  209.38
  -7  -1  -2 4164.82  193.46
  -7  -1  -2 6393.67  201.99
  -7  -1  -2 5619.48  210.35
   7   1   2 7485.59  218.33
   7  -1   2 5613.94  205.32
  -7  -1  -2 5164.44  204.56
  -7   1  -2 6308.12  196.55
  -7   1  -2 6821.24  219.22
  -7  -1  -2 7645.00  216.51
   7  -1   2 7277.13  195.80
  -7   1  -2 6093.13  210.32
  -7  -1  -2 6276.38  205.86
   7  -1   2 7473.27  196.94
  -7  -1  -3   67.45   12.79
  -7  -1  -3   64.59   10.95
  -7  -1  -3   77.55   11.29
   7   1   3  112.38   15.62
   7   1   3   98.31   12.34
  -7  -1  -3   99.16   14.91
   7  -1   3  105.54   10.18
  -7   1  -3   72.98   13.92
   7  -1   3  115.22   10.25
   7   1   3  124.96   15.00
   7   1   4 5212.38  140.79
  -7  -1  -4 3199.03  136.90
  -7  -1  -4 2604.37  127.26
  -7   1  -4 3360.12  140.32
  -7  -1  -4 4211.72  143.66
  -7   1  -4 3380.73  140.71
  -7  -1  -4 4111.14  143.30
  -7  -1  -4 4073.31  153.58
  -7   1  -4 3648.12  150.64
   7   1   4 4395.86  134.31
  -7  -1  -4 4603.83  144.70
  -7  -1  -4 3945.28  138.37
  -7  -1  -5   38.56    9.50
  -7  -1  -5   31.68    9.36
  -7   1  -5   23.81    8.96
  -7   1  -5   25.56    9.15
  -7  -1  -5   28.73    9.17
  -7  -1  -5   40.45   11.83
  -7   1  -5   21.24    9.35
  -7   1  -5   43.46    8.00
   7  -1   5   37.07    7.07
   7   1   5   39.27    8.48
  -7   1  -5   40.17    9.57
  -7  -1  -5   43.15   10.31
  -7   1  -5   31.83    6.44
  -7  -1  -5   29.87    9.60
   7   1   5   43.98    8.61
  -7  -1  -6   72.75   13.28
  -7   1  -6   52.54   13.06
  -7  -1  -6   81.89   15.34
   7   1   6  102.93   16.04
  -7   1  -6   55.41   12.85
  -7  -1  -6  106.91   17.17
  -7  -1  -6   70.46   16.39
  -7   1  -6   71.88   16.67
  -7   1  -6   72.83   10.58
   7  -1   6   91.73   11.88
   7   1   6   96.65   13.73
  -7  -1  -6   91.61   16.33
  -7   1  -6   75.34   10.30
  -7  -1  -6  115.07   17.47
  -7   1  -6  128.30   16.97
   7   1   6  119.81   13.99
  -7   1  -7   44.83   12.09
  -7  -1  -7   69.23   14.68
   7   1   7   75.30   13.73
  -7  -1  -7   55.68   14.53
  -7   1  -7   60.25   15.51
  -7   1  -7   60.35    9.50
   7  -1   7   67.88   11.04
   7   1   7   81.24   13.23
  -7  -1  -7   78.89   13.91
  -7  -1  -7  102.64   16.44
  -7  -1  -7   74.98   16.93
  -7   1  -7   45.05    8.39
  -7   1  -7   71.65   13.26
  -7  -1  -7   58.84   13.59
   7   1   8 5595.15  164.24
  -7  -1  -8 4055.79  170.38
  -7   1  -8 3882.78  171.60
  -7   1  -8 4499.20  143.24
   7  -1   8 4772.44  151.66
   7   1   8 5318.11  160.75
  -7  -1  -8 4503.10  156.09
  -7   1  -8 3150.55  138.91
  -7  -1  -8 5176.60  166.80
  -7  -1  -8 4291.77  172.48
  -7   1  -8 3556.25  140.18
  -7   1  -8 4497.36  158.66
   7   1   9  203.34   21.78
  -7  -1  -9  179.18   26.64
  -7   1  -9  154.65   25.51
  -7   1  -9  172.90   15.93
   7  -1   9  187.51   20.04
   7   1   9  214.40   22.64
  -7  -1  -9  169.52   19.92
  -7  -1  -9  208.32   24.07
  -7  -1  -9  168.92   26.04
  -7   1  -9  120.60   14.40
  -7   1  -9  133.56   15.21
   7   1  10 2058.29   93.18
  -7  -1 -10 1487.95   85.88
  -7   1 -10 1430.74   85.88
  -7   1 -10 1614.12   60.87
   7  -1  10 1752.53   73.27
   7   1  10 1993.18   79.50
  -7  -1 -10 1793.97   79.88
  -7  -1 -10 1568.70   85.47
  -7   1 -10 1241.17   60.75
  -7   1 -10 1049.40   56.14
  -7  -1 -10 1551.53   60.30
  -7  -1 -10 1569.20   70.39
   7   1  11   20.63    8.63
  -7  -1 -11   10.96    7.85
  -7   1 -11   13.88    8.83
  -7  -1 -11   18.92    8.97
  -7   1 -11   13.22    6.72
   7   1  11   18.75    7.05
   7  -1  11   30.49    7.86
   7  -1  11   18.34    6.23
  -7  -1 -11   15.39    6.30
  -7  -1 -12  561.05   45.94
  -7   1 -12  460.29   43.00
  -7   1 -12  561.10   39.73
  -7  -1 -12  493.57   31.79
  -7  -1 -13   96.95   11.28
  -7   1 -13  111.53   16.13
  -7  -1 -13  113.21   18.75
  -7   1 -13  106.11   18.03
  -7   1 -14 2526.97   72.85
  -7  -1 -14 2587.33   81.79
  -7   1 -14 2328.94   78.88
  -7   1 -15   57.75   10.55
  -7  -1 -15   40.84    9.03
  -7  -3  15   49.68    8.43
   7  -3 -15   39.69    5.03
  -7   3  15   44.62    7.96
   7  -3 -15   64.06    8.32
  -7   3  14 1316.75   43.60
   7  -3 -14  849.55   27.52
  -7   3  14  938.89   42.96
  -7  -3  14  975.22   41.22
   7  -3 -14 1207.56   40.05
  -7   3  14  892.72   45.70
  -7  -3  14  885.15   41.12
  -7  -3  14  861.58   36.05
  -7  -3  13  296.62   27.94
  -7  -3  13  297.77   25.33
   7   3 -13  343.29   22.29
   7  -3 -13  331.67   21.99
  -7   3  13  348.33   25.36
   7   3 -13  233.11   18.94
   7  -3 -13  304.02   20.10
  -7   3  13  346.84   31.37
  -7  -3  13  342.00   28.46
   7  -3 -13  391.45   26.36
  -7   3  13  312.06   27.95
   7  -3 -12  121.61   11.24
  -7  -3  12  135.36   20.11
   7   3 -12  114.61   13.26
   7  -3 -12  119.91   14.15
   7  -3 -12  142.38   16.15
  -7   3  12  114.22   15.13
   7   3 -12   80.43   11.33
   7  -3 -12  124.13   13.03
  -7   3  12   95.84   16.39
  -7  -3  12   98.97   16.34
   7  -3 -12  129.50   15.81
  -7  -3  12   97.35   15.71
  -7   3  12  127.39   19.79
   7  -3 -11  422.94   29.78
  -7   3  11  282.01   26.04
  -7   3  11  245.62   26.92
   7   3 -11  245.40   22.14
  -7   3  11  389.13   33.91
   7  -3 -11  433.03   30.94
  -7  -3  11  334.35   32.02
  -7   3  11  378.90   35.11
  -7  -3  11  341.21   31.37
   7  -3 -11  322.07   22.83
  -7  -3  11  355.56   35.09
  -7  -3  11  344.52   24.64
   7   3 -11  346.38   25.11
   7  -3 -11  371.05   27.76
   7  -3 -11  399.72   29.81
   7  -3 -11  328.27   27.02
  -7  -3  11  376.61   36.29
   7   3 -10 1090.64   51.31
  -7   3  10  751.22   55.46
  -7   3  10  895.37   54.80
   7  -3 -10 1079.82   60.02
  -7   3  10 1210.60   48.93
  -7   3  10 1235.99   66.11
  -7  -3  10  953.69   60.45
  -7  -3  10 1130.57   65.54
  -7   3  10 1143.84   66.26
   7  -3 -10 1074.64   51.47
  -7  -3  10 1069.02   68.52
  -7  -3  10 1055.17   52.46
   7  -3 -10 1180.35   58.16
   7   3 -10 1093.15   51.76
   7   3 -10 1101.98   50.64
   7  -3 -10 1266.40   60.36
   7  -3 -10 1366.81   60.51
  -7  -3  10 1101.24   68.55
  -7   3   9   63.57   13.78
  -7  -3   9   18.90    8.82
  -7   3   9   24.99    9.39
  -7  -3   9   33.61   12.19
  -7  -3   9   25.24    9.83
   7  -3  -9   25.61    8.27
  -7  -3   9   26.58    7.77
   7   3  -9   19.04    5.87
   7  -3  -9   26.16    8.22
   7  -3  -9   24.40    8.05
  -7   3   9   22.54    5.78
  -7   3   9   27.23    9.80
   7  -3  -9   32.60    8.77
   7   3  -9   23.26    6.48
   7   3  -8 1812.91   86.34
   7   3  -8 1601.22   69.23
  -7   3   8 1114.43   72.56
  -7   3   8 1730.96   67.54
  -7   3   8 1750.65   83.62
   7   3  -8 1665.79   69.21
  -7  -3   8 1605.83   85.35
  -7   3   8 1753.88   85.18
  -7  -3   8 1804.05   95.60
   7   3  -8 1574.69   68.04
  -7  -3   8 1662.13   86.24
  -7  -3   8 1619.76   73.51
   7   3  -8 1710.13   70.64
   7  -3  -8 2004.50   83.57
  -7  -3   8 1889.03   86.10
   7   3  -8 1503.79   64.84
   7  -3  -8 2029.65   80.69
   7   3  -7  470.96   28.59
   7   3  -7  478.49   30.97
  -7  -3   7  503.28   42.85
  -7   3   7  541.61   41.08
  -7  -3   7  504.55   47.20
  -7  -3   7  584.13   46.04
   7   3  -7  474.46   30.44
  -7  -3   7  486.61   34.86
   7   3  -7  513.71   32.47
   7  -3  -7  587.59   40.52
  -7   3   7  526.52   30.75
  -7   3   7  369.90   34.70
  -7  -3   7  468.56   33.83
   7  -3  -7  562.33   40.21
   7   3  -7  575.08   44.82
   7   3  -7  509.83   32.51
   7   3  -6  170.78   24.93
   7   3  -6  135.75   15.96
  -7   3   6  103.84   17.20
  -7  -3   6  144.21   17.33
  -7   3   6  147.28   15.19
  -7   3   6  154.93   20.84
   7   3  -6  139.01   15.70
  -7   3   6  138.48   20.10
  -7  -3   6  155.35   26.16
   7  -3  -6  160.66   19.22
   7   3  -6  151.30   15.67
  -7  -3   6  160.32   23.54
   7   3  -6  164.78   16.90
  -7  -3   6  130.28   17.20
   7   3  -6  151.87   16.59
   7  -3  -6  148.63   19.88
   7   3  -6  184.77   15.93
   7   3  -6  132.99   15.57
   7   3  -5  153.02   14.25
   7   3  -5  169.16   25.82
   7   3  -5  143.18   16.32
  -7   3   5   97.68   16.82
  -7  -3   5  149.98   17.31
  -7   3   5  145.69   15.17
  -7   3   5  184.80   22.33
  -7   3   5  149.14   19.98
   7   3  -5  121.01   14.85
  -7  -3   5  177.40   27.59
   7  -3  -5  166.00   18.84
   7   3  -5  150.51   15.19
  -7  -3   5  190.49   25.98
  -7  -3   5  145.49   17.82
   7   3  -5  161.92   16.56
   7   3  -5  160.39   17.04
   7  -3  -5  193.83   22.17
   7  -3  -5  162.74   20.02
   7   3  -5  128.83   16.05
   7  -3  -5  180.70   22.45
   7   3  -4 1722.15   66.53
  -7  -3   4 1957.91   81.17
  -7   3   4 1655.56   85.55
   7   3  -4 2158.47   99.70
   7  -3  -4 1718.19   74.21
  -7  -3   4 1972.11   83.41
  -7   3   4 1650.73   83.20
  -7  -3   4 1991.02   76.89
  -7   3   4 1701.37   70.43
  -7   3   4 1931.21   85.50
  -7   3   4 1749.09   82.08
   7   3  -4 1672.38   72.82
  -7  -3   4 2188.08  106.00
   7  -3  -4 1767.60   76.86
   7   3  -4 1795.66   69.71
  -7  -3   4 2128.66   96.92
   7   3  -4 1741.70   72.34
  -7  -3   4 1853.88   78.09
   7   3  -4 1852.53   75.28
   7  -3  -4 1680.62   78.52
   7   3  -4 1624.01   74.98
   7  -3  -4 1873.13   85.24
  -7   3   3    1.90    4.76
  -7  -3   3   13.20    5.39
   7   3  -3    6.87    2.98
  -7  -3   3    5.65    4.80
   7   3  -3    8.19    7.19
  -7  -3   3    3.82    6.40
   7   3  -3   10.20    4.96
  -7   3   3    7.87    5.73
  -7  -3   3    9.39    4.06
  -7   3   3    8.64    4.12
  -7   3   3   13.87    6.57
  -7   3   3   23.09    7.85
   7  -3  -3    6.28    4.29
  -7  -3   3   10.49    8.24
  -7  -3   3   20.21    9.25
  -7  -3   3    7.11    4.52
   7   3  -3    9.07    3.88
   7   3  -3   10.77    4.45
   7  -3  -3   11.05    5.74
  -7   3   3   12.60    6.26
   7   3  -3   10.39    5.28
   7  -3  -3    8.68    5.46
   7  -3  -3   11.77    4.68
   7  -3  -3   14.72    6.53
   7   3  -2 2231.42   75.26
  -7   3   2 1799.58   86.41
  -7  -3   2 2400.87   86.57
  -7  -3   2 2074.42   87.46
   7  -3  -2 1894.40   79.58
  -7  -3   2 2897.13  117.04
   7   3  -2 2205.24   85.59
  -7   3   2 2142.04   87.28
  -7  -3   2 2028.61   78.12
  -7   3   2 2474.69   97.72
  -7   3   2 2093.03   91.85
   7  -3  -2 2192.72   86.93
  -7  -3   2 2516.68  105.83
   7   3  -2 2235.67   78.21
   7   3  -2 2169.66   81.28
  -7  -3   2 2327.68   88.95
   7   3  -2 2258.17   86.50
  -7   3   2 2091.10   80.97
   7   3  -2 2010.48   87.78
   7  -3  -2 2158.17   89.36
   7  -3  -2 2206.16   94.37
   7  -3  -2 2438.36   92.80
  -7   3   2 2032.15   85.94
   7  -3  -1 1367.74   61.68
  -7   3   1 1008.46   52.58
  -7  -3   1 1377.37   54.88
   7   3  -1 1299.47   52.58
  -7  -3   1 1306.50   58.26
   7   3  -1 1157.37   55.12
  -7   3   1 1248.53   62.35
   7   3  -1 1103.41   58.03
   7  -3  -1 1294.34   60.25
   7  -3  -1 1162.76   61.36
  -7   3   1  935.92   53.63
  -7  -3   1 1344.91   57.66
  -7  -3   1  944.79   53.06
   7   3  -1 1312.66   78.44
  -7  -3   1 1605.78   79.47
   7   3  -1 1202.27   73.23
   7   3  -1 1252.30   55.99
  -7  -3   0  601.35   45.19
   7   3   0  565.85   32.50
   7   3   0  496.31   41.86
  -7  -3   0  521.20   44.71
  -7   3   0  440.50   31.13
  -7  -3   0  566.76   31.69
  -7   3   0  382.91   27.73
   7   3   0  549.43   28.86
  -7  -3   0  500.96   32.60
   7   3   0  483.14   31.44
   7  -3   0  533.38   34.75
   7  -3   0  482.18   35.44
  -7   3   0  450.63   28.40
  -7  -3   0  596.62   37.34
  -7  -3  -1  419.68   36.40
   7   3   1  417.35   26.79
   7   3   1  339.45   32.75
  -7   3  -1  421.31   28.26
   7   3   1  368.56   29.27
   7  -3   1  386.78   28.56
   7  -3   1  340.20   28.59
  -7  -3  -1  370.35   36.97
  -7   3  -1  298.72   24.69
  -7  -3  -1  408.77   26.55
   7   3   1  355.44   30.88
   7   3   1  415.82   23.21
   7   3   1  342.60   25.40
  -7   3  -1  316.55   23.07
  -7   3  -1  363.40   25.91
  -7  -3  -1  405.17   29.72
  -7  -3  -2 4102.14  156.14
   7   3   2 3949.21  130.25
  -7  -3  -2 4124.90  136.51
  -7   3  -2 4355.25  134.25
  -7   3  -2 2728.69  123.91
  -7  -3  -2 4404.90  131.93
   7   3   2 3565.94  138.68
  -7   3  -2 2663.02  123.79
   7   3   2 3991.57  128.79
   7  -3   2 4619.22  136.94
   7  -3   2 3439.83  131.96
   7   3   2 4278.87  149.50
   7   3   2 4217.18  128.14
  -7   3  -2 3262.84  130.68
  -7   3  -2 3350.10  123.42
  -7   3  -2 3877.16  129.45
  -7   3  -3    4.31    3.78
   7   3   3   10.96    5.92
   7   3   3    6.57    3.25
   7  -3   3    6.96    3.80
   7  -3   3    6.42    3.95
   7  -3   3    3.45    3.63
  -7  -3  -3    8.75    7.42
   7   3   3    1.16    2.62
  -7  -3  -3    1.15    4.07
  -7   3  -3    6.13    4.05
  -7  -3  -3    0.62    2.21
  -7   3  -3    3.34    3.52
  -7  -3  -3    1.22    2.91
   7   3   3    7.28    3.50
  -7  -3  -3    4.54    3.60
  -7   3  -3    2.99    2.85
  -7   3  -3    1.77    2.81
  -7  -3  -4 2758.57   95.53
  -7   3  -4 2107.70   90.71
   7   3   4 3124.08  111.42
   7   3   4 2784.56   86.40
   7  -3   4 2433.04   87.63
   7  -3   4 2854.70   94.34
   7   3   4 2660.26   90.68
  -7  -3  -4 2079.02  103.92
   7   3   4 2355.13  101.09
  -7   3  -4 1407.57   83.85
  -7  -3  -4 2747.74   95.35
  -7  -3  -4 1860.93   91.56
   7   3   4 2834.34   88.81
  -7   3  -4 1934.66   93.88
  -7   3  -4 2372.65   89.18
  -7  -3  -4 2618.67   99.01
  -7   3  -4 2065.18   86.96
   7  -3   5 1959.61   68.46
   7   3   5 1875.21   65.04
  -7  -3  -5 1418.83   78.68
  -7   3  -5  938.47   59.85
   7   3   5 1721.39   77.23
  -7  -3  -5 1284.05   67.58
  -7  -3  -5 1729.94   74.51
  -7   3  -5 1415.97   61.64
  -7   3  -5 1342.40   70.53
  -7   3  -5 1284.77   60.20
  -7  -3  -5 1982.22   74.58
  -7   3  -5 1438.17   65.89
   7   3   6  487.86   26.88
  -7  -3  -6  352.86   35.82
   7   3   6  418.09   34.21
  -7  -3  -6  287.87   28.14
  -7  -3  -6  335.89   25.75
  -7  -3  -6  433.21   33.55
  -7   3  -6  375.84   32.96
  -7  -3  -6  449.03   32.96
  -7   3  -6  434.44   29.91
  -7   3  -6  454.07   35.81
  -7   3  -6  435.22   29.19
  -7  -3  -7  537.30   38.01
   7   3   7  592.96   40.13
  -7  -3  -7  395.07   33.15
  -7  -3  -7  383.13   29.33
  -7  -3  -7  490.21   42.29
  -7   3  -7  481.32   38.21
  -7  -3  -7  641.33   40.08
  -7   3  -7  385.62   30.27
  -7   3  -7  515.32   32.64
  -7   3  -7  554.97   40.90
   7   3   7  625.74   38.56
   7   3   8 3467.90  127.90
  -7  -3  -8 2765.04  120.95
  -7  -3  -8 2524.57  112.81
  -7  -3  -8 4041.63  132.05
  -7   3  -8 2673.28  115.12
  -7   3  -8 3406.03  116.80
  -7   3  -8 3571.25  133.17
  -7  -3  -8 3685.56  129.48
  -7   3  -8 3052.62  127.35
   7   3   8 4104.61  128.33
  -7  -3  -8 3597.78  128.38
  -7  -3  -9  154.58   16.90
   7   3   9  237.16   21.88
   7   3   9  202.45   21.94
  -7   3  -9  142.19   16.97
  -7  -3  -9  213.04   22.80
   7   3   9  243.15   23.87
  -7   3  -9  185.91   17.13
  -7   3  -9  191.52   23.26
  -7  -3  -9  228.84   23.41
  -7   3  -9  153.97   20.82
  -7  -3 -10 1510.19   71.37
   7   3  10 1813.59   69.78
   7   3  10 1650.08   73.27
  -7  -3 -10 1703.56   75.43
  -7  -3 -11 1116.97   54.23
  -7  -3 -11  963.26   50.16
  -7   3 -11  826.10   49.83
  -7  -3 -11  951.25   49.47
   7   3  11 1087.39   53.98
   7   3  11 1121.13   52.30
  -7  -3 -12  427.23   28.23
  -7   3 -12  393.06   30.93
  -7  -3 -12  347.94   25.06
  -7  -3 -12  367.82   25.01
   7   3  12  406.89   27.97
   7   3  12  395.39   25.54
  -7  -3 -13  146.47   13.01
  -7  -3 -13   44.54    5.71
  -7   3 -13    1.88    1.52
   7   3  13  173.78   15.04
  -7  -3 -13  170.75   14.78
  -7   3 -13  186.73   18.81
  -7  -3 -14 1818.40   66.48
   7   3  14 1951.48   70.52
   7   5 -12   47.85    6.20
  -7  -5  12   42.21    6.10
   7   5 -12   53.34    7.36
  -7   5  12   56.61    7.19
   7  -5 -12   60.88    7.32
  -7  -5  12   51.38    7.12
   7  -5 -11  669.50   30.91
  -7  -5  11  577.20   33.01
  -7  -5  11  532.06   29.45
   7   5 -11  519.69   26.84
   7  -5 -11  540.21   25.46
   7  -5 -11  596.99   28.53
  -7   5  11  493.56   28.88
   7   5 -11  570.11   30.53
  -7   5  11  492.37   31.83
  -7   5  11  578.08   24.37
  -7  -5  11  534.32   28.12
  -7  -5  10  650.01   33.92
  -7  -5  10  622.38   30.31
   7   5 -10  525.45   23.93
   7  -5 -10  646.14   25.84
  -7  -5  10  579.73   27.04
  -7   5  10  532.38   27.90
  -7   5  10  600.42   22.09
  -7   5  10  593.19   32.43
   7  -5  -9   10.43    4.25
   7   5  -9    8.89    3.15
   7   5  -9   10.73    3.92
  -7   5   9   10.46    3.56
  -7  -5   9    7.32    3.20
  -7  -5   9    6.12    3.85
  -7   5   9    5.06    3.81
  -7  -5   9    5.24    3.90
  -7  -5   8  758.52   43.72
   7   5  -8  690.29   36.84
   7  -5  -8  807.82   41.12
   7   5  -8  685.99   35.93
   7   5  -8  686.79   35.11
  -7  -5   8  716.44   39.74
  -7  -5   8  766.97   39.53
   7   5  -8  786.27   38.32
  -7   5   8  805.62   36.61
  -7   5   8  696.10   42.56
   7  -5  -7  629.77   38.21
  -7  -5   7  591.23   39.41
   7   5  -7  554.21   32.46
   7   5  -7  517.77   31.46
   7  -5  -7  610.82   37.36
   7   5  -7  520.25   31.25
  -7  -5   7  596.26   35.30
  -7  -5   7  563.84   35.02
  -7   5   7  616.77   32.17
  -7   5   7  554.90   37.42
  -7   5   6    4.64    4.07
   7   5  -6    4.05    3.04
   7  -5  -6    4.50    3.58
  -7  -5   6    3.50    4.40
   7   5  -6    5.57    3.19
   7  -5  -6    3.78    4.33
   7   5  -6    0.59    2.46
  -7  -5   6    2.73    3.25
  -7  -5   6    6.64    3.94
   7  -5  -6    4.38    4.02
  -7   5   6    3.57    3.03
  -7   5   5  821.68   47.33
   7   5  -5  839.26   44.36
   7  -5  -5  933.42   49.60
  -7  -5   5  911.38   52.85
   7   5  -5  798.49   42.25
   7   5  -5  800.73   43.81
  -7  -5   5  816.95   47.86
   7  -5  -5  931.07   50.15
  -7  -5   5  866.66   46.90
   7   5  -5  964.46   57.50
  -7  -5   5  839.18   45.16
   7   5  -5  789.99   46.37
   7  -5  -5  832.23   47.40
  -7   5   5  921.90   43.07
   7   5  -4 1021.88   52.15
  -7   5   4 1147.88   56.77
   7   5  -4 1131.53   54.87
   7  -5  -4 1207.20   59.23
   7   5  -4 1091.21   51.46
  -7  -5   4 1219.48   60.33
   7  -5  -4 1276.58   61.01
  -7  -5   4 1199.03   58.08
   7   5  -4 1317.11   69.60
  -7  -5   4 1051.86   53.55
   7   5  -4 1103.34   55.82
   7  -5  -4 1103.38   57.52
  -7   5   4 1228.29   52.99
  -7  -5   3   58.01   13.00
   7   5  -3   50.61    9.84
   7  -5  -3   38.98    9.32
   7   5  -3   36.42    7.57
   7   5  -3   53.96    9.99
  -7  -5   3   44.97   10.27
  -7  -5   3   50.36   10.50
   7   5  -3   52.01   12.84
  -7  -5   3   34.66    8.13
   7   5  -3   39.63    8.68
  -7   5   3   48.39    8.55
   7   5  -3   39.33    8.86
  -7   5   3   35.55    8.26
  -7   5   2  954.66   45.94
   7   5  -2 1025.21   60.59
  -7  -5   2  859.59   46.47
   7   5  -2  939.23   47.29
   7   5  -2  832.67   48.91
  -7  -5   2 1115.15   61.26
   7  -5  -2  995.51   51.35
   7   5  -2  943.33   44.74
   7   5  -2  925.20   48.50
  -7  -5   2 1028.87   53.82
   7  -5  -2  974.29   52.20
   7  -5  -2  979.72   51.16
  -7   5   1 1287.22   53.90
   7   5  -1 1282.15   70.01
  -7   5   1 1276.52   55.95
  -7  -5   1 1483.66   72.65
   7   5  -1 1268.89   59.99
   7  -5  -1 1365.62   61.42
   7   5  -1  952.63   55.62
   7   5  -1 1278.94   53.40
  -7  -5   1 1348.07   63.91
   7   5  -1 1181.08   57.56
   7   5  -1 1166.00   61.13
  -7  -5   1 1394.42   53.42
   7  -5  -1 1279.63   61.51
  -7   5   0   32.38    6.91
   7   5   0   44.58   11.57
  -7  -5   0   34.13   10.54
   7   5   0   28.17    7.51
   7   5   0   23.17    6.76
   7   5   0   26.53    5.65
   7   5   0   34.15    7.94
  -7  -5   0   28.71    8.52
   7  -5   0   25.35    7.28
   7   5   0   20.12    7.32
  -7  -5   0   24.80    5.73
  -7   5   0   20.06    6.38
   7   5   1 1762.36   82.65
   7   5   1 1786.03   77.30
  -7  -5  -1 2407.62   97.89
  -7   5  -1 2205.89   80.92
   7   5   1 1542.15   78.58
   7   5   1 1915.18   76.57
  -7  -5  -1 1936.52   83.45
   7   5   1 1896.61   89.12
  -7   5  -1 1983.83   75.34
   7  -5   1 1987.25   79.57
   7   5   2 1803.08   83.73
  -7  -5  -2 2375.26   97.24
   7   5   2 1942.60   79.09
  -7   5  -2 2147.68   80.98
   7   5   2 1607.55   80.76
   7   5   2 2085.13   77.18
  -7   5  -2 1881.12   76.16
   7   5   2 2048.77   90.44
   7  -5   2 2010.09   79.56
  -7   5  -2 1932.89   75.92
   7  -5   3  106.58   13.50
  -7  -5  -3  118.17   18.77
   7   5   3  114.56   13.64
  -7  -5  -3  123.11   19.27
   7   5   3  101.02   15.20
   7   5   3  122.55   12.96
  -7   5  -3  146.03   17.10
   7   5   3  150.55   19.39
  -7   5  -3  121.06   14.80
  -7  -5  -3  131.90   14.57
  -7   5  -3   89.55   12.02
  -7   5  -3  118.56   14.15
  -7   5  -4  435.27   28.48
  -7   5  -4  533.29   32.27
   7   5   4  542.67   38.04
  -7   5  -4  593.64   35.76
   7   5   4  467.49   33.91
   7   5   4  477.38   28.90
  -7  -5  -4  522.69   39.06
  -7  -5  -4  476.08   38.91
   7   5   4  429.76   32.67
   7   5   4  481.03   26.63
  -7  -5  -4  537.51   30.79
  -7   5  -4  476.41   31.14
   7  -5   4  436.86   28.76
   7   5   4  488.71   33.08
  -7  -5  -5 1319.24   65.37
   7   5   5 1300.31   51.41
  -7  -5  -5 1184.37   65.24
  -7  -5  -5 1313.36   53.85
  -7  -5  -5 1237.98   61.85
   7   5   5 1180.74   58.74
   7  -5   5  992.37   47.73
  -7   5  -5 1358.45   59.42
  -7   5  -5 1043.13   50.94
  -7   5  -5 1354.47   56.98
   7   5   5 1125.73   58.08
   7   5   6   74.25   12.03
  -7  -5  -6   77.68   10.59
  -7  -5  -6   82.37   13.35
   7   5   6   78.23    9.10
  -7   5  -6   87.44   12.40
   7   5   6   87.07   12.78
  -7   5  -6   91.58   12.18
  -7   5  -6   72.33   10.39
  -7   5  -6   73.37   12.70
  -7  -5  -7 1008.38   52.48
  -7   5  -7 1153.48   51.54
  -7   5  -7 1151.07   56.17
  -7  -5  -7 1088.06   47.12
   7   5   7 1129.20   51.76
  -7  -5  -8 1253.72   58.21
   7   5   8 1200.97   56.83
  -7  -5  -8 1295.15   52.92
   7   5   8 1441.98   58.15
   7   5   8 1323.79   58.17
  -7   5  -8 1403.80   58.31
  -7   5  -8 1400.20   62.70
   7   5   9  150.04   14.91
  -7   5  -9  173.54   15.92
  -7   5  -9  199.11   18.88
  -7  -5  -9  151.32   12.99
   7   5   9  161.37   15.19
  -7   5 -10  602.87   30.60
  -7   5 -10  652.48   34.68
  -7  -5 -10  551.64   26.69
   7   5  10  577.02   29.60
  -7   5 -11 1258.18   47.50
   7   5  11 1240.42   46.37
  -7  -5 -11 1204.18   44.14
  -7  -7   5  568.73   23.86
   7  -7  -5  427.89   19.57
  -7   7   5  665.05   23.02
   7   7  -5  536.78   23.17
   7  -7  -5  482.76   20.66
   7  -7  -4  161.47   10.45
   7   7  -4  163.04   10.58
   7  -7  -4  182.31   11.33
  -7  -7   4  196.32   12.72
  -7   7   4  217.30   11.93
  -7  -7   3    3.62    2.08
   7   7  -3    1.58    1.35
   7   7  -3    8.70    2.63
   7  -7  -3    3.10    1.61
  -7   7   3    6.66    1.83
  -7   7   3    6.98    2.24
  -7   7   2  223.88   13.08
   7   7  -2  221.54   14.06
  -7   7   2  232.23   11.80
   7   7  -2  197.96   12.67
  -7  -7   2  198.43   13.73
   7  -7  -2  193.48   12.22
   7  -7  -1 1254.80   45.54
   7   7  -1 1134.27   45.63
   7   7  -1 1398.71   48.40
   7   7  -1 1255.95   45.52
  -7  -7   1 1337.95   48.71
  -7   7   1 1494.00   45.11
   7   7   0   13.37    3.11
   7   7   0   23.14    4.09
   7  -7   0   20.67    3.74
   7  -7   0   18.37    3.46
  -7   7   0   23.09    4.19
  -7  -7   0   21.18    4.27
  -7   7   0   18.50    3.15
   7   7   1 1043.46   39.49
   7   7   1 1120.85   39.86
  -7   7  -1 1147.29   38.45
   7  -7   1 1021.11   38.66
  -7  -7  -1 1057.10   41.21
  -7   7  -1 1168.48   41.27
  -7   7  -2  299.54   15.73
   7   7   2  287.70   14.78
  -7   7  -2  290.42   14.06
  -7  -7  -2  262.91   15.60
  -7  -7  -2  320.22   18.44
   7  -7   2  264.51   14.06
   7  -7   3   24.76    3.36
  -7   7  -3   39.64    4.38
  -7   7  -3   39.10    4.86
  -7  -7  -3   39.23    5.83
  -8   0  16 1332.73   56.49
   8   0 -16 1424.84   54.59
  -8   0  15    2.73    2.50
   8   0 -15    0.59    2.28
  -8   0  15   -2.96    5.42
  -8   0  15    1.46    2.84
  -8   0  14  947.27   43.84
   8   0 -14  849.14   47.18
  -8   0  14  757.60   54.18
  -8   0  14  770.12   48.39
   8   0 -14  892.10   40.47
  -8   0  14  672.99   50.88
  -8   0  13    5.40    3.71
  -8   0  13    6.76    6.78
  -8   0  13    3.98    4.99
  -8   0  13    2.64    5.55
   8   0 -13    3.85    3.03
   8   0 -12  937.11   45.84
  -8   0  12  852.69   63.40
  -8   0  12 1054.79   70.12
  -8   0  12  900.35   57.55
   8   0 -12 1105.06   50.23
   8   0 -12  920.66   47.57
   8   0 -12 1034.11   46.40
  -8   0  12  938.62   51.53
  -8   0  12 1048.93   69.59
  -8   0  12  958.83   63.50
  -8   0  11    0.80    3.83
  -8   0  11    3.14    6.10
   8   0 -11    6.97    5.24
  -8   0  11   -1.49    6.68
  -8   0  11   12.55    8.98
  -8   0  11    1.13    4.01
   8   0 -11    0.67    2.59
   8   0 -11    1.93    3.23
   8   0 -11    0.58    2.75
   8   0 -11   -0.58    2.44
  -8   0  11    7.99    7.62
  -8   0  10 3206.58  148.18
  -8   0  10 3166.24  124.63
   8   0 -10 3500.85  123.85
   8   0 -10 3483.01  121.80
   8   0 -10 4034.56  151.60
  -8   0  10 3170.84  127.08
  -8   0  10 3769.75  158.06
   8   0 -10 3185.02  123.33
  -8   0  10 3824.35  151.08
  -8   0  10 3895.39  160.85
   8   0 -10 3515.52  122.59
  -8   0  10 3643.49  142.76
   8   0  -9    0.65    2.74
   8   0  -9    1.21    3.05
  -8   0   9    5.86    7.71
  -8   0   9    0.76    2.97
  -8   0   9   -1.61    7.21
  -8   0   9    2.46    3.45
   8   0  -9    1.40    2.73
  -8   0   9    1.32    4.18
   8   0  -9    7.14    4.70
  -8   0   9   11.40    9.31
   8   0  -9    1.74    2.75
  -8   0   9    1.16    4.51
   8   0  -8 1841.47   73.80
  -8   0   8 1524.10   89.96
  -8   0   8 1584.47   74.88
  -8   0   8 1917.47  101.73
  -8   0   8 1958.84  103.25
   8   0  -8 1713.66   69.36
  -8   0   8 1793.34   88.96
  -8   0   8 1986.38   95.36
   8   0  -8 1915.43   83.56
   8   0  -8 1584.80   72.96
   8   0  -7    4.94    3.80
   8   0  -7    3.62    3.59
  -8   0   7   10.94    8.40
  -8   0   7    6.13    5.01
  -8   0   7    7.83    7.86
   8   0  -7    5.98    5.69
  -8   0   7    6.36    6.70
   8   0  -7    1.85    3.88
  -8   0   7   20.68   12.11
   8   0  -7    2.45    2.46
  -8   0   7    5.76    6.60
   8   0  -6 2199.13   85.98
   8   0  -6 2261.28   85.94
   8   0  -6 2190.03   81.13
  -8   0   6 1979.75  103.16
  -8   0   6 2193.64   92.17
  -8   0   6 2531.65  119.08
  -8   0   6 2542.91  111.64
  -8   0   6 2497.30  119.99
  -8   0   6 2421.96  106.65
  -8   0   5    4.80    7.19
  -8   0   5    4.62    5.80
   8   0  -5    0.66    3.31
   8   0  -5    0.54    2.69
   8   0  -5    6.04    2.93
  -8   0   5   -2.39    6.28
  -8   0   5    6.23    7.40
  -8   0   5   10.48    8.57
  -8   0   5    3.79    4.33
  -8   0   5    8.02    4.46
  -8   0   4 3876.16  163.59
  -8   0   4 4462.28  187.11
   8   0  -4 4729.18  153.04
  -8   0   4 4465.01  174.01
  -8   0   4 4135.55  147.17
  -8   0   4 4738.90  183.94
   8   0  -4 4373.46  146.34
   8   0  -3    8.97    4.84
  -8   0   3    4.89    4.00
  -8   0   3    1.46    6.54
   8   0  -3    2.64    3.47
   8   0  -3    2.21    4.96
  -8   0   3   14.03    7.87
   8   0  -3    4.59    2.92
   8   0  -2 1350.74   52.24
  -8   0   2  918.02   55.00
   8   0  -2 1510.59   59.05
  -8   0   2 1249.71   58.74
  -8   0   2 1895.98   91.94
   8   0  -2 1114.57   55.65
  -8   0   2 1160.45   68.45
   8   0  -2 1255.50   69.58
  -8   0   2 1774.27   95.46
  -8   0   1    4.54    3.99
   8   0  -1    6.35    4.03
  -8   0   1   -1.29    7.37
  -8   0   1    4.03    7.68
  -8   0   1    3.85    3.67
   8   0  -1    2.45    2.75
   8   0  -1    4.27    5.09
  -8   0   1    4.12    5.17
  -8   0   1    1.64    8.65
  -8   0   0 2816.00  106.50
  -8   0   0 2103.64   98.49
  -8   0   0 4007.83  142.94
   8   0   0 2700.21  118.45
   8   0   0 2449.30  100.91
  -8   0   0 2556.85  112.05
   8   0   0 3549.83  104.95
  -8   0   0 3794.62  129.74
  -8   0   0 2897.48  104.84
  -8   0   0 3979.30  132.64
  -8   0  -1    6.53    5.54
   8   0   1    4.96    3.20
  -8   0  -1    1.23    3.52
   8   0   1    4.62    3.31
  -8   0  -1   -1.17    4.93
  -8   0  -2 6951.93  230.58
  -8   0  -2 6057.81  197.68
  -8   0  -2 7091.75  220.98
   8   0   2 7051.15  193.56
  -8   0  -2 6105.02  209.48
  -8   0  -3    1.97    5.43
  -8   0  -3    2.23    2.66
  -8   0  -3    2.49    4.84
  -8   0  -3    5.36    4.12
  -8   0  -3    3.35    2.94
  -8   0  -3    2.56    3.37
   8   0   3    4.39    3.14
  -8   0  -4  555.89   41.74
  -8   0  -4  600.11   47.65
  -8   0  -4  608.41   33.91
  -8   0  -4  463.24   32.55
  -8   0  -4  658.81   33.20
   8   0   4  604.90   33.64
  -8   0  -4  570.90   38.17
   8   0   4  728.23   38.61
  -8   0  -5    9.75    4.39
  -8   0  -5    8.98    3.19
  -8   0  -5    1.95    3.26
  -8   0  -5    2.61    5.48
  -8   0  -5   13.43    6.11
  -8   0  -5    9.16    6.26
  -8   0  -5    6.11    6.05
   8   0   5    3.09    3.26
  -8   0  -6 1933.80   70.31
  -8   0  -6 1613.47   71.28
  -8   0  -6 1808.27   93.98
  -8   0  -6 1384.96   62.76
  -8   0  -6 1711.52   79.49
  -8   0  -6 1562.94   81.83
  -8   0  -6 1584.02   82.86
  -8   0  -7    5.75    7.21
  -8   0  -7    4.67    2.34
  -8   0  -7   14.94    6.63
  -8   0  -7   -4.57    6.28
   8   0   7    2.34    3.28
  -8   0  -7    5.39    2.58
  -8   0  -7    0.64    3.05
  -8   0  -8 2050.57  101.79
  -8   0  -8 2058.75   87.85
  -8   0  -8 1800.82   73.43
  -8   0  -9    2.93    5.70
  -8   0  -9    1.96    4.91
  -8   0  -9    2.34    3.47
   8   0   9    5.20    4.96
  -8   0 -10  112.29   12.98
  -8   0 -10  139.42   23.64
   8   0  10  176.98   21.77
  -8   0 -11    5.77    3.06
  -8   0 -11   10.66    7.33
  -8   0 -11    5.25    2.41
  -8   0 -12 1895.73   69.58
  -8   0 -12 1940.45   94.22
  -8   0 -13    0.89    0.82
  -8   0 -13   -1.01    4.53
  -8   0 -14 1341.88   65.28
  -8   0 -15    4.71    3.85
   8   2 -16 1267.76   45.11
   8  -2 -16 1185.94   43.10
  -8  -2  16 1173.68   52.91
  -8  -2  16 1184.38   51.22
  -8   2  16 1189.92   54.86
   8  -2 -15   28.57    5.31
   8   2 -15   25.81    5.40
  -8   2  15   28.47    5.79
  -8  -2  15   28.36    8.28
  -8   2  15   10.30    6.10
  -8  -2  15   25.35    7.21
  -8   2  15   25.30    7.82
  -8   2  14  314.53   30.11
  -8  -2  14  422.89   33.07
   8  -2 -14  488.16   27.53
  -8   2  14  488.70   36.87
  -8  -2  14  379.04   33.37
  -8   2  14  376.47   27.59
  -8  -2  14  447.10   24.81
   8   2 -14  416.46   27.23
   8  -2 -14  407.20   25.02
  -8  -2  13  198.14   21.92
   8  -2 -13  203.82   15.81
  -8   2  13  160.04   22.62
  -8  -2  13  210.33   24.69
   8  -2 -13  252.39   20.29
  -8   2  13  235.36   27.08
   8   2 -13  218.30   17.20
   8   2 -13  218.84   20.95
   8  -2 -13  212.40   18.94
  -8  -2  13  205.01   26.19
  -8   2  13  212.73   21.94
  -8   2  12  298.62   32.03
  -8  -2  12  320.73   32.89
   8  -2 -12  329.59   24.95
  -8  -2  12  323.93   31.89
   8  -2 -12  316.28   22.66
   8  -2 -12  359.15   26.23
   8   2 -12  329.73   23.25
  -8  -2  12  272.54   32.98
  -8   2  12  337.49   29.88
  -8   2  12  339.07   27.14
   8   2 -11  302.93   22.16
  -8   2  11  246.05   30.45
  -8  -2  11  303.23   30.26
  -8   2  11  283.20   25.36
   8  -2 -11  304.14   29.29
  -8   2  11  313.44   20.47
  -8  -2  11  241.83   32.43
  -8   2  11  353.76   31.54
  -8   2  11  266.02   30.79
  -8  -2  11  289.11   32.66
   8  -2 -11  336.26   25.51
  -8  -2  11  308.26   32.75
   8  -2 -11  285.22   23.23
   8  -2 -11  330.02   26.18
   8  -2 -11  391.83   28.08
   8  -2 -11  277.67   24.20
   8   2 -11  255.31   20.17
   8   2 -10 5004.36  172.92
   8   2 -10 3917.66  137.57
  -8   2  10 3545.41  143.49
  -8   2  10 3242.56  156.09
  -8  -2  10 3774.73  155.15
   8  -2 -10 4128.68  155.84
  -8  -2  10 3532.35  167.04
  -8   2  10 4373.26  157.81
  -8   2  10 3665.22  158.25
  -8  -2  10 4039.88  165.77
   8  -2 -10 4484.59  144.62
  -8   2  10 4182.87  164.20
  -8  -2  10 4191.50  166.51
   8   2 -10 4065.04  138.88
   8  -2 -10 4516.89  146.11
   8   2 -10 4054.24  139.76
   8  -2 -10 4935.69  149.76
   8   2 -10 4293.24  138.85
   8  -2 -10 3512.52  141.22
   8   2 -10 3729.60  134.57
   8  -2 -10 4969.39  143.71
   8   2  -9   18.44    5.17
   8  -2  -9   25.67    6.85
  -8   2   9   15.72    6.59
  -8  -2   9   21.78   11.60
  -8   2   9   27.42    9.33
  -8   2   9   34.80   11.68
  -8  -2   9   19.95   10.62
   8  -2  -9   25.75    7.28
  -8   2   9   27.24   10.03
  -8  -2   9   19.81   10.06
   8  -2  -9   29.09    7.96
  -8  -2   9   17.96    8.56
   8  -2  -9   12.89    5.92
   8   2  -9   17.87    5.44
   8  -2  -9   21.00    6.82
   8   2  -9   18.27    5.61
   8   2  -9   23.33    6.39
   8   2  -9   14.65    5.45
  -8  -2   9   22.03    7.19
  -8   2   9   17.13    9.13
  -8  -2   9   23.26    9.95
   8  -2  -9    9.89    5.01
   8   2  -9   22.39    9.82
  -8  -2   9   18.68    9.42
  -8  -2   8  951.71   70.66
  -8   2   8 1005.78   59.35
  -8   2   8  839.44   58.23
  -8  -2   8  911.54   65.22
  -8   2   8 1026.93   63.33
  -8  -2   8  954.31   65.08
   8   2  -8  960.96   46.23
  -8  -2   8 1003.75   59.04
   8  -2  -8 1019.34   52.28
   8   2  -8  976.09   47.19
   8   2  -8  844.85   45.05
   8   2  -8  919.60   45.94
   8  -2  -8 1034.63   51.62
   8   2  -8 1107.98   68.62
   8  -2  -8  961.47   56.97
  -8   2   8  846.37   50.62
  -8   2   8  766.11   57.63
  -8  -2   8 1032.30   62.77
  -8  -2   8  976.36   52.94
   8   2  -8  819.13   42.11
   8  -2  -8 1116.92   49.29
   8   2  -8  814.36   43.86
  -8  -2   8  993.41   67.22
   8  -2  -8 1040.56   58.98
  -8  -2   7  431.93   46.66
  -8   2   7  425.52   36.30
  -8   2   7  302.25   32.76
  -8  -2   7  375.91   40.21
  -8   2   7  437.29   38.69
  -8  -2   7  435.78   41.42
   8   2  -7  406.71   26.84
  -8  -2   7  384.82   34.16
   8  -2  -7  421.88   31.10
   8   2  -7  358.60   26.21
   8   2  -7  347.14   26.16
   8  -2  -7  416.30   30.37
   8  -2  -7  398.30   33.24
  -8   2   7  385.83   31.19
  -8   2   7  305.03   34.19
  -8  -2   7  407.69   37.39
  -8  -2   7  442.43   33.29
   8   2  -7  374.10   24.55
   8  -2  -7  448.41   28.26
  -8  -2   7  462.80   44.13
   8   2  -7  427.46   41.07
   8  -2  -7  395.37   34.45
   8   2  -7  334.68   26.25
  -8  -2   6 1350.72   86.17
  -8   2   6 1399.86   69.69
  -8   2   6  904.08   61.02
  -8  -2   6 1183.61   76.49
  -8   2   6 1240.71   68.66
  -8  -2   6 1255.20   73.91
   8   2  -6 1114.30   50.63
  -8  -2   6 1175.43   63.96
   8   2  -6 1116.05   51.58
   8   2  -6 1042.41   51.25
   8   2  -6 1075.27   52.14
   8  -2  -6 1289.27   58.25
   8  -2  -6 1077.07   59.14
  -8   2   6  867.20   62.01
  -8  -2   6 1228.77   68.48
  -8  -2   6 1201.80   60.74
  -8   2   6 1130.61   58.85
  -8  -2   6 1101.57   52.99
   8   2  -6 1074.02   47.98
   8  -2  -6 1207.71   63.94
   8   2  -6 1039.83   53.77
   8   2  -5   45.53    7.66
  -8  -2   5   45.87   16.13
  -8   2   5   25.10    9.82
  -8   2   5   47.67   12.62
   8   2  -5   42.54    7.85
  -8  -2   5   50.52   14.82
  -8  -2   5   47.73   11.08
   8   2  -5   44.15    8.44
   8  -2  -5   53.75   10.37
   8   2  -5   55.89   14.58
  -8   2   5   30.04   11.47
  -8  -2   5   47.23   12.42
   8  -2  -5   39.34    9.53
   8   2  -5   34.74    8.68
   8  -2  -5   43.31   10.12
   8  -2  -5   38.88   10.03
   8   2  -4 4541.41  155.50
  -8  -2   4 4905.73  170.13
  -8  -2   4 6300.47  218.73
  -8   2   4 5270.05  180.25
  -8   2   4 5377.25  186.48
   8   2  -4 5006.16  159.78
   8  -2  -4 4755.35  159.67
  -8  -2   4 4734.16  173.32
   8   2  -4 4824.33  161.33
   8  -2  -4 5213.11  167.44
   8  -2  -4 4335.60  167.43
   8   2  -4 5967.44  197.24
   8   2  -4 5707.32  202.03
  -8   2   4 4299.16  182.48
  -8  -2   4 5736.16  187.94
  -8   2   4 5019.94  172.22
   8  -2  -4 5217.95  169.58
   8   2  -4 4568.60  167.75
  -8  -2   3   64.35   15.94
  -8   2   3   28.93   11.76
  -8  -2   3   33.70    8.36
  -8   2   3   46.53    9.90
   8   2  -3   54.56   13.96
   8   2  -3   50.11   14.70
  -8   2   3   32.55   11.74
  -8  -2   3   53.54   12.74
  -8   2   3   50.64   11.56
  -8   2   3   55.74   13.41
   8  -2  -3   33.78    6.75
   8   2  -3   37.24    6.92
   8   2  -3   45.28    8.30
  -8  -2   3   38.41    9.25
   8  -2  -3   45.46    8.90
   8  -2  -3   34.91    8.38
   8   2  -3   35.18    9.23
   8  -2  -3   41.36    9.35
   8  -2  -3   38.45   10.06
  -8  -2   2  766.46   42.45
   8   2  -2  915.80   65.35
   8   2  -2  725.69   53.35
  -8   2   2  790.02   44.39
  -8   2   2  845.57   55.50
  -8  -2   2  911.09   50.57
  -8   2   2  745.53   46.84
  -8   2   2  797.60   56.95
  -8  -2   2  700.16   41.42
  -8  -2   2  993.35   58.66
   8   2  -2  763.39   35.91
  -8  -2   2  709.76   42.23
   8   2  -2  703.88   37.43
   8  -2  -2  755.28   41.40
  -8   2   2  784.35   52.81
  -8  -2   2  839.62   48.16
   8  -2  -2  631.61   43.75
   8   2  -2  805.55   46.18
  -8  -2   1  602.65   35.19
  -8   2   1  590.41   32.56
  -8   2   1  526.72   39.32
   8   2  -1  644.19   53.94
   8   2  -1  608.37   47.43
  -8   2   1  675.92   39.03
  -8   2   1  672.43   45.39
  -8  -2   1  672.33   39.73
   8  -2  -1  589.86   33.01
   8  -2  -1  529.47   38.68
  -8  -2   1  562.54   43.51
   8   2  -1  680.12   30.81
   8   2  -1  628.71   33.23
  -8  -2   1  696.50   51.59
  -8  -2   1  688.77   44.61
  -8   2   1  551.87   44.39
  -8  -2   1  596.26   37.24
   8  -2  -1  631.59   35.80
  -8   2   1  676.12   44.97
  -8  -2   1  653.42   38.76
  -8   2   0 1303.07   69.08
   8   2   0 1520.57   81.22
  -8   2   0 1670.51   67.98
  -8   2   0 1710.39   68.85
   8  -2   0 1487.59   61.78
   8  -2   0 1412.89   70.90
   8   2   0 1848.16   75.88
  -8  -2   0 1359.47   75.30
  -8   2   0 1609.70   74.99
  -8  -2   0 1518.55   67.23
   8  -2   0 1632.14   65.82
   8   2   0 1727.58   62.99
  -8  -2   0 1869.30   88.83
  -8   2   0 1563.28   62.18
  -8   2   0 1379.05   66.38
  -8  -2   0 1693.69   74.57
  -8   2   0 1444.69   76.80
  -8  -2   0 1690.40   71.07
  -8   2  -1   10.32    3.81
  -8   2  -1   17.07    6.18
  -8   2  -1   12.45    5.67
   8   2   1   12.72    7.15
   8   2   1   12.73    4.70
  -8  -2  -1   22.63   10.77
  -8   2  -1    5.66    6.74
   8   2   1   16.79    6.42
   8  -2   1   18.39    5.07
  -8  -2  -1   10.42    6.42
  -8  -2  -1    7.04    4.82
  -8  -2  -1   17.97    6.15
  -8  -2  -1   14.05    7.44
   8   2   1   16.02    4.44
   8  -2   1   15.36    5.33
  -8   2  -1   16.35    7.79
  -8  -2  -1   11.39    5.43
  -8   2  -1   14.85    6.43
  -8  -2  -1   14.66    5.58
  -8   2  -1   10.61    4.45
  -8  -2  -1   14.57    5.52
  -8  -2  -1   12.94    6.05
  -8   2  -2 4353.41  147.82
  -8   2  -2 5052.54  153.54
  -8   2  -2 4070.94  152.64
  -8   2  -2 3811.92  154.84
   8  -2   2 3675.90  148.73
   8   2   2 5175.93  172.01
  -8  -2  -2 7681.13  209.11
  -8   2  -2 3820.49  165.85
   8   2   2 5317.76  163.87
   8  -2   2 4868.27  148.84
  -8  -2  -2 4074.64  167.29
  -8  -2  -2 3325.43  153.42
   8   2   2 5178.40  146.62
  -8  -2  -2 4551.07  155.38
  -8  -2  -2 4630.62  174.02
   8   2   2 5471.43  154.06
  -8   2  -2 4854.45  168.48
   8  -2   2 4954.33  151.87
  -8  -2  -2 4878.47  160.62
  -8  -2  -2 4706.47  161.23
  -8   2  -3  245.24   19.99
  -8   2  -3  206.64   21.02
  -8   2  -3  252.89   22.21
   8   2   3  255.31   25.64
  -8  -2  -3  320.28   32.57
  -8   2  -3  222.16   26.55
   8   2   3  289.43   24.69
  -8  -2  -3  183.16   24.31
  -8  -2  -3  192.11   21.81
   8  -2   3  286.27   20.18
  -8   2  -3  230.72   25.09
  -8  -2  -3  250.35   23.27
  -8   2  -3  203.89   23.57
  -8  -2  -3  260.33   23.65
   8   2   3  302.71   21.43
   8   2   3  262.76   19.04
  -8  -2  -3  256.87   24.23
  -8   2  -3  236.91   18.34
  -8   2  -3  240.59   18.77
  -8   2  -3  214.95   19.96
   8   2   4  961.96   48.01
  -8  -2  -4  764.37   52.58
  -8  -2  -4  625.36   44.52
   8  -2   4  913.45   39.92
  -8   2  -4  728.17   48.43
  -8  -2  -4  875.21   48.09
   8   2   4  928.09   53.17
  -8   2  -4  729.65   48.68
  -8  -2  -4  875.33   48.28
   8   2   4 1018.49   42.24
  -8  -2  -4 1011.77   59.38
  -8   2  -4  722.37   51.88
   8   2   4  972.94   52.60
  -8   2  -4  691.61   42.54
  -8   2  -4  779.45   45.17
  -8   2  -4  823.44   41.38
  -8   2  -4  768.38   38.01
  -8   2  -4  750.81   41.45
  -8   2  -5  907.35   45.78
  -8  -2  -5  733.81   50.39
  -8   2  -5  791.86   52.52
  -8  -2  -5  991.48   53.80
   8   2   5 1119.00   59.26
  -8   2  -5  815.27   53.52
  -8  -2  -5 1067.90   55.73
   8   2   5 1155.39   44.52
  -8  -2  -5 1086.41   62.17
  -8   2  -5  832.81   57.41
   8   2   5 1242.08   59.29
  -8   2  -5  926.31   51.72
  -8   2  -5  850.31   47.62
  -8   2  -5  884.45   44.86
   8  -2   5  933.14   48.62
  -8   2  -6  835.49   42.90
   8   2   6  973.62   55.69
  -8   2  -6  702.82   50.71
  -8  -2  -6  884.84   52.33
  -8  -2  -6  943.66   58.17
  -8   2  -6  761.83   55.56
  -8  -2  -6 1043.44   54.69
  -8   2  -6  744.76   42.13
  -8   2  -6  902.61   51.87
   8   2   6 1093.74   55.61
   8   2   6 1003.74   42.06
  -8  -2  -6  855.79   50.38
  -8  -2  -7   55.83   13.58
  -8   2  -7   48.65   13.51
  -8   2  -7   61.40    9.35
  -8   2  -7   56.41   12.00
  -8  -2  -7   44.72   10.63
  -8   2  -7   41.95    9.36
  -8   2  -7   48.14    9.04
  -8  -2  -7   73.91   13.24
   8   2   7   63.88   12.91
  -8  -2  -8 3137.07  131.13
  -8   2  -8 2943.03  132.68
  -8  -2  -8 3316.15  123.29
  -8  -2  -8 3623.40  128.25
  -8   2  -8 2729.00  111.70
  -8   2  -8 3372.79  127.79
  -8   2  -8 2643.11  113.22
   8   2   8 3761.15  121.78
   8   2   8 3645.55  128.49
  -8  -2  -9  127.73   19.71
  -8   2  -9  116.02   19.88
  -8  -2  -9  132.31   17.35
  -8  -2  -9  149.27   19.25
  -8   2  -9  123.70   15.21
  -8   2  -9  113.79   14.42
  -8   2  -9  139.77   19.62
   8   2   9  144.69   16.10
   8   2   9  140.53   17.77
   8   2  10    7.31    4.35
  -8   2 -10   19.77    7.48
  -8   2 -10   13.91    5.17
  -8  -2 -10   10.60    6.08
  -8   2 -10    6.37    3.91
  -8  -2 -10   23.25    5.88
  -8  -2 -10    4.97    4.52
  -8  -2 -10    8.24    5.90
  -8   2 -10    5.59    5.61
   8   2  11  424.64   28.55
  -8  -2 -11  375.36   22.69
  -8  -2 -11  337.41   25.54
  -8  -2 -11  385.17   32.46
  -8   2 -11  338.71   31.65
  -8   2 -11  396.12   24.92
  -8   2 -11  312.17   23.84
  -8  -2 -12 1186.07   50.02
  -8   2 -12 1123.27   49.97
  -8  -2 -12 1123.62   38.82
  -8   2 -12 1153.92   35.62
  -8  -2 -13   30.24    7.39
  -8   2 -13   27.21    7.37
  -8   2 -13   26.97    7.39
  -8  -2 -13   28.41    5.62
   8   2  13   34.31    6.76
  -8  -2 -14 1533.32   52.27
  -8  -2 -14 1480.18   57.37
  -8   2 -14 1352.48   57.84
  -8  -2 -14 1223.18   49.27
  -8   2 -14 1617.43   63.98
   8   2  14 1566.03   56.79
  -8  -4  14  429.87   23.91
  -8   4  14  452.33   26.28
   8  -4 -13  690.30   29.89
  -8   4  13  522.03   32.98
   8   4 -13  592.95   27.19
  -8  -4  13  624.87   32.70
  -8   4  13  641.16   29.67
  -8   4  13  595.32   33.73
  -8  -4  13  608.22   31.47
   8  -4 -12  294.30   19.56
  -8   4  12  256.47   23.05
   8  -4 -12  316.36   20.18
   8   4 -12  268.41   17.61
   8  -4 -12  248.20   16.87
  -8  -4  12  262.93   22.12
  -8  -4  12  265.42   19.46
  -8   4  12  263.68   23.07
  -8   4  12  243.55   18.77
   8  -4 -11  463.44   27.37
  -8   4  11  362.25   29.50
   8  -4 -11  500.63   28.76
   8  -4 -11  440.87   26.17
   8   4 -11  404.00   24.33
  -8  -4  11  453.25   32.55
  -8  -4  11  412.76   28.12
  -8  -4  11  478.30   35.61
  -8   4  11  399.61   31.21
  -8   4  11  376.92   26.90
   8  -4 -10 1764.89   68.35
  -8   4  10 1484.75   71.74
  -8  -4  10 1705.80   77.58
   8  -4 -10 1453.14   59.51
  -8  -4  10 1575.13   70.22
   8  -4 -10 1779.78   67.82
   8   4 -10 1497.08   61.94
   8   4 -10 1406.40   59.31
   8  -4 -10 1855.36   69.80
  -8   4  10 1513.87   68.16
  -8  -4  10 1865.86   83.59
  -8   4   9  379.80   31.54
  -8  -4   9  453.57   37.21
  -8  -4   9  461.84   33.74
  -8  -4   9  445.14   26.10
   8  -4  -9  409.84   29.24
   8   4  -9  386.32   25.47
   8  -4  -9  457.14   31.00
  -8   4   9  449.44   25.10
  -8   4   9  389.78   30.37
   8   4  -9  371.06   25.55
  -8  -4   9  525.21   41.26
  -8   4   9  423.42   34.12
  -8   4   8  716.88   46.13
   8   4  -8  621.26   34.92
  -8   4   8  570.60   40.41
  -8  -4   8  743.12   50.99
  -8  -4   8  652.33   43.88
  -8  -4   8  783.24   37.67
   8   4  -8  667.12   36.60
   8  -4  -8  754.40   43.17
   8  -4  -8  555.77   37.43
  -8   4   8  724.95   35.41
  -8   4   8  647.58   41.81
  -8  -4   8  656.46   44.28
   8   4  -8  618.12   36.04
   8  -4  -8  740.58   40.43
   8   4  -7 1358.83   60.82
  -8   4   7 1330.59   67.36
  -8  -4   7 1696.38   83.87
  -8  -4   7 1565.58   75.00
  -8  -4   7 1632.54   63.46
   8   4  -7 1322.93   59.82
   8   4  -7 1355.76   61.24
   8  -4  -7 1635.65   71.05
  -8  -4   7 1440.04   72.85
   8   4  -7 1410.82   62.39
   8  -4  -7 1175.55   62.32
  -8   4   7 1468.59   59.73
   8  -4  -7 1483.28   70.06
  -8   4   7 1425.30   71.93
   8  -4  -6  329.21   26.83
  -8  -4   6  314.17   30.67
  -8  -4   6  345.49   25.22
   8   4  -6  274.57   22.36
   8  -4  -6  320.49   27.87
  -8  -4   6  313.69   30.57
   8   4  -6  314.17   24.81
   8  -4  -6  260.03   24.16
  -8   4   6  315.63   23.02
  -8   4   6  356.36   31.14
   8   4  -6  298.92   23.83
  -8   4   6  287.80   26.64
   8  -4  -5  278.81   24.54
  -8  -4   5  296.51   30.32
  -8  -4   5  260.77   22.22
   8   4  -5  247.51   20.92
   8  -4  -5  333.97   28.24
   8   4  -5  314.38   34.75
  -8  -4   5  311.86   30.42
  -8   4   5  295.71   22.47
  -8   4   5  276.08   27.28
   8   4  -5  262.91   22.82
   8   4  -4 1819.85   77.32
   8  -4  -4 2015.68   80.50
  -8  -4   4 2154.38   79.68
   8   4  -4 1805.18   73.22
   8  -4  -4 1894.58   82.99
   8   4  -4 2244.23  105.05
  -8  -4   4 2041.20   91.00
   8   4  -4 1724.48   75.93
  -8   4   4 1873.86   74.26
   8  -4  -4 1918.48   82.70
   8   4  -4 1436.03   73.66
  -8   4   4 1891.34   84.48
  -8   4   3  633.70   41.80
   8   4  -3  624.17   38.46
   8  -4  -3  676.91   39.71
   8  -4  -3  710.26   43.09
   8   4  -3  517.05   37.48
   8   4  -3  602.06   34.34
  -8  -4   3  682.88   38.54
   8   4  -3  595.44   37.33
  -8  -4   3  760.39   50.90
   8   4  -3  711.96   53.83
   8   4  -3  660.23   47.64
  -8  -4   3  717.56   47.43
   8   4  -3  631.24   37.83
  -8   4   3  614.51   35.38
  -8  -4   3  727.54   37.11
  -8   4   2  960.61   46.32
   8  -4  -2 1014.77   53.70
   8  -4  -2  868.40   53.57
  -8  -4   2 1090.69   66.31
   8  -4  -2  986.63   49.83
   8   4  -2  936.71   44.82
   8   4  -2  906.12   48.43
  -8  -4   2 1101.83   63.28
   8   4  -2  963.33   63.48
  -8  -4   2 1061.68   58.82
   8   4  -2  953.48   60.18
   8   4  -2  940.61   48.48
   8  -4  -2 1039.14   53.35
   8   4  -2  793.80   50.06
  -8  -4   2 1012.41   46.12
  -8   4   1 1155.79   52.63
   8  -4  -1 1197.15   58.40
   8  -4  -1  980.51   57.35
   8   4  -1 1017.31   53.55
  -8  -4   1 1232.27   71.04
   8  -4  -1 1117.65   53.62
   8   4  -1 1117.81   49.04
   8   4  -1 1096.93   53.62
  -8  -4   1 1328.07   70.61
  -8  -4   1 1151.79   62.38
   8   4  -1 1108.86   53.42
   8   4  -1 1054.40   65.23
  -8   4   1 1209.50   57.45
  -8  -4   1 1176.49   51.63
   8  -4  -1 1196.80   57.62
   8   4  -1  870.95   55.00
   8  -4   0 1828.42   77.94
   8  -4   0 1487.18   77.06
   8   4   0 1634.23   74.66
  -8  -4   0 1926.83   93.83
   8  -4   0 1967.32   79.18
   8   4   0 1601.48   80.35
   8   4   0 1836.55   68.52
   8   4   0 1734.37   89.43
   8   4   0 1776.33   73.80
  -8   4   0 1878.91   76.34
  -8   4   0 1900.06   74.07
  -8  -4   0 2130.31   94.12
   8   4   0 1840.31   75.20
  -8  -4   0 1897.36   73.93
  -8   4  -1  449.20   30.18
   8  -4   1  418.11   29.52
   8   4   1  337.94   31.25
  -8  -4  -1  436.93   37.56
   8   4   1  422.00   29.67
  -8   4  -1  384.55   27.12
   8   4   1  440.72   28.20
   8  -4   1  390.30   28.65
   8  -4   1  311.73   28.09
   8  -4   2 2171.71   84.13
   8   4   2 2108.32   84.46
  -8  -4  -2 2147.97   99.66
   8   4   2 1902.30   90.44
  -8   4  -2 2037.88   82.37
  -8  -4  -2 2215.69   86.17
  -8   4  -2 2181.40   85.06
   8   4   2 2131.11   96.38
   8   4   2 2165.79   80.77
   8  -4   3  483.28   30.43
   8   4   3  519.99   31.76
  -8  -4  -3  459.66   39.53
   8   4   3  437.72   35.10
   8   4   3  517.83   29.68
  -8   4  -3  476.67   30.63
   8   4   3  489.94   38.28
  -8   4  -3  484.80   31.52
  -8  -4  -3  464.40   31.46
  -8   4  -3  408.09   28.80
  -8   4  -4  545.62   33.83
  -8   4  -4  610.30   39.50
   8   4   4  695.67   44.40
  -8   4  -4  522.36   32.79
   8   4   4  613.00   33.75
  -8  -4  -4  522.47   42.59
   8   4   4  504.51   37.84
   8   4   4  612.69   31.56
  -8  -4  -4  456.07   34.16
   8   4   4  591.98   38.86
  -8   4  -4  575.10   34.54
  -8  -4  -4  633.02   36.72
   8  -4   4  577.88   33.21
  -8  -4  -5  794.23   53.91
   8   4   5  894.65   48.72
  -8  -4  -5  735.99   44.58
  -8   4  -5  755.98   42.60
  -8   4  -5  881.20   49.95
   8   4   5 1005.14   54.30
  -8  -4  -5  837.74   44.83
   8   4   5  908.41   41.47
   8   4   6 1268.01   50.10
  -8  -4  -6 1123.77   65.97
   8   4   6 1131.63   59.11
  -8  -4  -6 1042.92   55.65
   8   4   6 1272.86   59.74
   8   4   6 1363.34   65.36
  -8   4  -6 1050.93   53.41
  -8   4  -6 1285.56   58.69
  -8   4  -6 1279.11   62.99
  -8  -4  -6 1194.76   55.85
   8   4   7  259.72   22.71
  -8  -4  -7  239.33   21.95
  -8   4  -7  273.23   23.58
  -8   4  -7  269.84   25.43
  -8  -4  -7  259.47   21.96
   8   4   8 1668.41   73.40
  -8   4  -8 1930.82   76.16
  -8   4  -8 1800.46   78.98
  -8  -4  -8 1583.63   69.33
   8   4   8 1860.94   73.29
  -8  -4  -9  474.92   29.36
   8   4   9  454.92   30.98
  -8   4  -9  525.77   33.04
  -8   4  -9  577.71   36.93
   8   4   9  601.92   32.11
   8   4   9  517.17   32.16
  -8  -4 -10   74.18    9.63
   8   4  10   89.35   11.68
  -8   4 -10   81.90   11.50
  -8   4 -10   83.48   13.10
   8   4  10   66.71    9.80
  -8  -4 -11  484.09   23.77
  -8  -4 -11  407.63   23.66
   8   4  11  454.68   26.64
  -8   4 -11  497.26   27.95
  -8   4 -11  505.88   31.37
   8   4  11  463.56   25.69
   8   4  12  759.57   33.86
  -8  -4 -12  774.82   30.02
  -8   6   9  259.93   12.27
   8  -6  -9  260.30   13.62
  -8  -6   9  255.90   14.63
   8   6  -9  250.48   14.08
  -8   6   8  142.15    9.41
   8   6  -8  155.76   11.23
  -8   6   8  134.32   11.33
  -8  -6   8  127.32   10.61
   8   6  -8  121.08    9.95
   8  -6  -8  118.55    8.96
  -8   6   7 1433.41   48.86
   8   6  -7 1503.85   51.57
  -8   6   7 1396.25   52.90
  -8  -6   7 1361.95   51.57
   8   6  -7 1298.58   49.67
   8  -6  -7 1232.61   48.06
  -8   6   6  128.54   10.47
   8   6  -6  135.89   11.26
  -8   6   6  119.04   11.74
  -8  -6   6  117.68   11.51
   8   6  -6  109.92   10.20
   8  -6  -6  119.57   10.75
   8   6  -6  114.58   10.46
   8   6  -5  263.37   16.85
  -8  -6   5  263.47   18.33
   8   6  -5  223.50   16.29
   8  -6  -5  250.21   16.94
  -8  -6   5  260.85   19.86
  -8   6   5  274.13   16.78
   8   6  -5  270.25   17.00
  -8   6   5  242.87   17.81
   8  -6  -5  248.82   16.92
   8   6  -4  890.97   37.25
  -8  -6   4  850.85   39.56
   8  -6  -4  794.04   37.18
  -8  -6   4  923.66   43.18
   8   6  -4  806.06   38.07
  -8   6   4  928.57   37.76
   8   6  -4  931.12   37.05
  -8   6   4  845.54   38.75
   8  -6  -4  849.94   37.50
   8  -6  -3  371.79   21.73
   8   6  -3  398.06   21.43
   8   6  -3  335.15   21.92
  -8  -6   3  372.94   23.70
   8  -6  -3  366.56   22.27
   8   6  -3  370.98   23.26
  -8  -6   3  410.26   26.84
  -8   6   3  406.99   22.35
  -8   6   3  415.59   22.67
  -8   6   3  367.18   22.14
  -8   6   2  123.87   11.03
   8  -6  -2  110.66   10.86
   8   6  -2  130.87   10.96
   8   6  -2  111.97   11.75
   8  -6  -2  109.27   11.33
  -8  -6   2  107.89   12.02
  -8  -6   2  122.32   14.13
   8   6  -2  127.08   12.60
  -8   6   2  124.21   11.52
  -8   6   2  128.31   11.84
  -8   6   1 2058.39   69.24
   8   6  -1 1807.47   68.16
   8  -6  -1 1743.43   65.74
   8   6  -1 1781.38   70.77
  -8   6   1 1911.35   67.44
   8   6  -1 1738.02   69.15
  -8  -6   1 2055.59   76.38
  -8   6   0  291.89   19.03
   8   6   0  276.89   18.55
   8  -6   0  251.02   16.92
  -8  -6   0  289.82   23.38
   8   6   0  263.62   20.55
   8   6   0  250.67   18.89
  -8  -6   0  295.27   22.65
  -8   6   0  323.49   19.18
   8   6   1  114.03   11.73
  -8  -6  -1  107.95   13.15
  -8  -6  -1  122.96    9.48
  -8   6  -1  127.77   11.95
   8   6   1  110.31   10.65
   8  -6   1   83.91    9.09
  -8  -6  -1  113.25   14.18
   8   6   1   97.42   12.22
   8   6   1   93.67   10.98
  -8   6  -1  117.60   11.37
  -8   6  -1  130.18   11.53
   8   6   2  957.02   31.27
  -8  -6  -2  896.12   35.95
  -8   6  -2  931.34   30.55
  -8  -6  -2  929.88   24.91
  -8   6  -2  955.24   29.97
  -8   6  -2  989.36   30.47
   8  -6   2  780.59   24.70
  -8  -6  -2  987.70   39.93
   8   6   2  936.86   36.18
   8   6   2  743.72   30.21
  -8  -6  -3  581.76   30.13
   8  -6   3  459.79   17.98
   8   6   3  567.74   27.71
   8   6   3  482.95   24.24
  -8  -6  -3  559.73   27.63
  -8   6  -3  507.06   21.09
  -8   6  -3  574.16   22.99
  -8  -6  -3  565.21   19.58
   8   6   4   37.26    6.74
  -8  -6  -4   44.15    5.55
  -8   6  -4    0.30    0.48
  -8  -6  -4   46.45    8.43
   8   6   4    0.72    0.81
  -8   6  -4   41.62    6.29
  -8   6  -4   40.63    6.30
   8   6   5 1226.03   50.51
  -8  -6  -5 1350.93   55.39
   8   6   5 1144.85   47.93
  -8   6  -5 1416.07   49.39
  -8   6  -5 1158.36   47.89
  -8  -6  -5 1308.06   45.46
   8   6   6  202.42   15.06
   8   6   6  208.12   14.17
  -8  -6  -6  223.12   12.87
  -8   6  -6  231.01   14.86
  -8   6  -6  187.49   13.87
   8   6   7   62.44    7.30
  -8   6  -7   62.86    6.99
  -8   6  -7   64.79    7.20
  -8  -6  -7   62.36    5.98
  -9  -1  16  653.03   36.71
  -9   1  16  674.71   35.20
   9   1 -16  739.30   31.07
   9  -1 -16  715.61   29.76
  -9   1  15   62.43    8.31
   9   1 -15   46.91    7.53
   9  -1 -15   47.85    7.15
  -9  -1  15   37.70    8.07
  -9   1  15   31.60    8.99
  -9  -1  15   47.40   10.51
  -9   1  15   51.41   10.18
   9   1 -14   26.28    5.41
   9  -1 -14   30.77    5.55
   9   1 -14   31.14    7.26
   9  -1 -14   24.67    6.15
  -9   1  14   25.33    9.51
  -9  -1  14   27.01    8.96
  -9   1  14   39.75    9.73
  -9  -1  14   23.24    8.51
  -9   1  14   27.57    6.20
  -9   1  13    6.49    4.09
  -9  -1  13    5.30    3.37
  -9   1  13    5.81    2.53
  -9  -1  13    6.96    5.82
  -9   1  13    6.10    6.71
  -9  -1  13    1.15    5.17
  -9   1  13   13.09    6.78
   9  -1 -13    4.47    2.93
   9   1 -13    5.99    3.35
  -9   1  12 1402.58   80.92
  -9  -1  12 1465.69   81.75
  -9   1  12 1472.32   77.39
   9  -1 -12 1489.51   60.90
   9   1 -12 1498.38   60.25
   9   1 -12 1502.67   60.06
   9  -1 -12 1304.40   54.74
  -9   1  12 1274.83   62.46
  -9  -1  12 1475.16   63.72
  -9  -1  12 1392.05   80.65
  -9  -1  11    1.49    6.27
  -9   1  11    3.18    3.78
  -9   1  11    8.70    7.63
  -9  -1  11    2.93    7.71
   9  -1 -11    3.70    2.66
  -9   1  11    1.21    4.70
  -9  -1  11    2.89    4.32
   9  -1 -11    3.85    2.88
   9  -1 -11    2.46    3.38
   9  -1 -11    1.86    2.60
   9  -1 -11    2.06    2.59
   9   1 -11    2.24    2.82
   9  -1 -11    2.79    4.18
  -9  -1  11    0.73    2.58
  -9   1  11    5.57    6.26
  -9  -1  11    7.78    6.82
   9   1 -11    2.97    2.36
  -9   1  11    6.16    4.38
  -9  -1  11    1.36    5.30
   9   1 -10 1542.90   66.69
  -9  -1  10 1776.69   99.20
  -9   1  10 1782.62   79.93
  -9   1  10 1761.68   96.35
   9  -1 -10 1716.85   69.06
  -9   1  10 1858.04   92.79
  -9  -1  10 1814.65   85.56
   9  -1 -10 1913.74   75.57
   9   1 -10 1813.54   71.78
   9  -1 -10 1716.12   70.81
   9  -1 -10 1836.56   74.15
   9   1 -10 1674.21   67.90
   9   1 -10 1664.66   68.84
   9   1 -10 1889.20   94.16
  -9  -1  10 1861.28   79.27
  -9   1  10 1627.94   92.40
  -9  -1  10 1874.64   95.99
   9  -1 -10 1566.38   71.95
  -9  -1  10 1738.92   94.56
  -9   1  10 1800.90   90.98
   9   1  -9  218.80   18.58
  -9   1   9  221.76   22.43
  -9  -1   9  223.26   31.92
  -9   1   9  229.06   24.32
  -9   1   9  241.90   32.23
   9  -1  -9  215.02   18.51
  -9   1   9  253.16   30.34
  -9  -1   9  226.34   26.42
   9   1  -9  242.03   20.50
   9  -1  -9  251.82   22.39
   9   1  -9  236.88   20.37
   9  -1  -9  254.06   22.05
   9  -1  -9  260.20   20.90
   9   1  -9  227.68   19.10
   9   1  -9  261.63   31.49
   9  -1  -9  248.34   28.41
  -9  -1   9  270.01   25.39
  -9   1   9  210.40   29.90
  -9  -1   9  258.18   32.42
  -9  -1   9  247.87   32.01
  -9   1   9  250.17   29.32
   9  -1  -9  258.38   27.26
   9   1  -9  206.35   18.61
   9   1  -9  212.98   21.15
   9  -1  -9  200.68   20.55
  -9   1   8   25.94   12.36
   9  -1  -8   18.74    5.40
   9  -1  -8   12.05    5.77
   9   1  -8   20.18    6.50
   9  -1  -8   20.06    6.36
   9   1  -8   26.07    6.59
   9  -1  -8   24.82    6.34
   9   1  -8   26.97    6.86
  -9  -1   8   22.65   11.21
  -9   1   8   17.46    7.17
  -9  -1   8   22.44    7.83
  -9   1   8   13.22    8.42
  -9  -1   8   47.92   14.66
  -9   1   8   15.58    6.91
  -9  -1   8   27.64   11.95
  -9   1   8   15.40    8.00
   9  -1  -8   22.40    8.91
   9   1  -8   41.58   12.61
   9  -1  -8   32.61    9.86
   9   1  -8   25.04    7.53
  -9  -1   7   50.87    9.41
  -9  -1   7   54.05   16.42
  -9   1   7   60.93   12.69
   9  -1  -7   49.83    8.15
  -9   1   7   44.29   15.01
   9   1  -7   65.28   10.18
   9   1  -7   41.31    8.59
   9  -1  -7   51.13    9.67
   9  -1  -7   51.46    8.75
  -9  -1   7   66.69   17.35
  -9  -1   7   67.43   12.47
  -9   1   7   51.08   10.52
  -9   1   7   59.12   16.15
  -9  -1   7   58.01   16.57
  -9   1   7   69.91   14.74
   9  -1  -7   39.90   11.45
   9   1  -7   59.89   15.35
   9  -1  -7   44.55   11.32
  -9  -1   6 2163.18   88.60
  -9  -1   6 2625.34  122.78
  -9   1   6 2517.69  101.73
  -9   1   6 2078.71  112.68
  -9   1   6 2593.86  114.92
   9   1  -6 2364.75   88.17
   9   1  -6 2592.18   96.25
   9  -1  -6 2261.09   92.08
   9  -1  -6 2387.36   90.23
   9  -1  -6 2301.29   85.60
  -9  -1   6 2310.17   96.32
  -9   1   6 2290.65  114.94
  -9  -1   6 2700.41  122.02
  -9   1   6 2335.14   94.79
   9  -1  -6 2298.61  103.31
  -9   1   6 2291.46  104.53
   9  -1  -6 2280.14  100.23
  -9  -1   5   29.25    8.05
  -9   1   5   19.17    9.95
  -9  -1   5   30.28   11.90
  -9  -1   5   33.63   13.08
  -9   1   5   20.03   10.67
  -9   1   5   20.82   10.34
   9  -1  -5   26.70    7.13
   9   1  -5   22.53    7.09
  -9   1   5   13.68    7.10
   9  -1  -5   16.19    5.68
   9   1  -5   22.05    5.92
   9  -1  -5   18.26    5.01
   9  -1  -5   18.71    7.83
   9  -1  -5   21.08    7.71
  -9  -1   5   10.98    4.67
  -9  -1   4 3148.95  120.55
   9  -1  -4 2651.96  110.62
  -9   1   4 2865.70  124.00
   9   1  -4 2711.48   97.74
   9  -1  -4 2769.98   99.50
   9  -1  -4 2676.82   94.97
  -9  -1   4 2593.01  106.02
  -9   1   4 2786.07  129.14
  -9  -1   4 3419.71  136.79
  -9   1   4 2722.72  105.80
  -9  -1   4 2346.59   98.54
   9   1  -4 2751.78  112.90
  -9  -1   4 2920.63  130.48
   9   1  -4 3259.59  108.43
   9  -1  -4 2646.49  102.06
  -9  -1   3  369.38   41.22
  -9   1   3  253.92   23.31
  -9  -1   3  255.32   22.05
  -9   1   3  333.38   39.93
  -9  -1   3  261.48   26.01
   9   1  -3  282.28   20.63
   9  -1  -3  264.26   20.60
  -9   1   3  293.75   25.75
  -9   1   3  301.27   36.56
  -9  -1   3  351.89   37.90
   9   1  -3  346.32   26.28
   9  -1  -3  284.95   23.17
   9   1  -3  251.21   26.28
  -9  -1   3  298.58   35.05
  -9   1   2  369.55   34.64
  -9  -1   2  578.45   43.25
   9   1  -2  376.55   32.29
  -9  -1   2  465.94   42.97
   9   1  -2  397.70   40.43
  -9   1   2  415.25   30.45
  -9   1   2  485.64   44.25
  -9  -1   2  380.23   29.30
  -9  -1   2  532.53   43.46
  -9  -1   2  393.43   27.82
  -9   1   2  379.79   28.49
  -9  -1   2  321.05   26.60
  -9  -1   2  496.84   46.55
  -9   1   2  482.78   47.12
  -9  -1   2  228.50   22.71
   9   1  -2  517.83   27.19
  -9  -1   2  363.80   29.46
   9  -1  -2  404.03   25.04
  -9  -1   2  379.04   34.44
   9   1  -2  475.22   30.31
  -9   1   2  450.80   41.67
  -9  -1   2  454.63   39.63
   9  -1  -2  416.97   27.65
  -9   1   2  332.11   28.43
  -9  -1   2  350.29   28.87
  -9  -1   1   62.43   12.47
  -9   1   1   44.59   11.43
   9   1  -1   47.96   11.26
   9  -1  -1   42.11   10.35
   9   1  -1   79.15   18.21
  -9  -1   1   69.38   16.32
  -9   1   1   63.03   11.07
  -9   1   1   77.54   16.74
  -9  -1   1   81.95   15.45
  -9  -1   1   71.42   16.70
  -9   1   1   81.02   18.59
  -9   1   1   69.28   10.60
  -9  -1   1   58.53   10.49
  -9  -1   1   40.81    9.11
   9   1  -1   65.27    8.79
  -9  -1   1   62.69   11.41
  -9  -1   1   59.49   13.28
  -9  -1   1   54.56   10.38
   9   1  -1   81.18   11.62
   9  -1  -1   75.89   10.20
  -9  -1   1   85.86   15.88
   9  -1  -1   55.13    9.21
  -9   1   1   62.54   14.61
  -9   1   0 3651.39  151.68
  -9  -1   0 5090.47  158.30
   9   1   0 4223.79  177.15
   9   1   0 4086.94  156.44
  -9  -1   0 4622.24  172.66
   9  -1   0 3618.24  151.71
  -9  -1   0 7158.65  216.93
  -9   1   0 4561.84  179.41
  -9   1   0 4698.09  151.09
   9   1   0 4730.40  155.95
  -9  -1   0 3110.60  143.13
   9  -1   0 4613.92  142.54
  -9   1   0 5101.27  171.30
   9  -1   0 4726.30  145.83
  -9  -1   0 5183.12  164.44
  -9   1   0 4569.58  151.14
  -9  -1   0 4438.59  151.52
  -9  -1   0 3726.18  154.67
  -9   1   0 4731.46  176.59
  -9   1   0 4505.42  147.12
  -9  -1   0 5344.07  176.04
  -9  -1   0 4053.34  147.75
  -9  -1   0 3835.61  147.09
  -9   1  -1   53.39   11.42
   9   1   1   58.01   12.11
   9  -1   1   53.61   11.35
  -9  -1  -1   65.87   16.84
  -9   1  -1   72.85   17.35
  -9   1  -1   62.10   10.28
   9   1   1   71.72   12.40
  -9  -1  -1   42.21    9.53
  -9   1  -1   87.49   17.31
  -9  -1  -1   95.04   16.35
  -9  -1  -1   68.07   12.63
   9  -1   1   75.56    9.29
  -9   1  -1   60.12   13.64
   9  -1   1   81.99   10.33
  -9   1  -1   67.07   10.71
  -9  -1  -1   66.16   11.06
  -9  -1  -1   61.66   12.57
  -9   1  -1   67.13   10.23
  -9  -1  -1   46.35    9.43
  -9   1  -1   49.79    9.64
   9   1   2 1119.73   53.45
  -9  -1  -2  611.25   42.89
  -9   1  -2 1108.27   63.16
  -9  -1  -2 1199.76   59.94
  -9  -1  -2  981.69   48.27
  -9  -1  -2 1247.61   70.91
  -9   1  -2 1046.61   65.19
  -9  -1  -2  838.15   45.69
  -9   1  -2  964.98   41.23
  -9   1  -2  840.57   45.41
   9   1   2  939.56   51.48
   9  -1   2  887.57   51.18
  -9  -1  -2  876.65   46.33
  -9  -1  -2  848.39   48.36
  -9   1  -2  919.21   43.81
  -9   1  -2  821.10   47.23
  -9   1  -2  830.53   38.98
  -9   1  -3  275.06   29.91
  -9  -1  -3  298.18   28.23
  -9  -1  -3  241.15   21.83
  -9  -1  -3  237.44   23.18
  -9   1  -3  282.18   20.63
  -9  -1  -3  317.55   33.61
  -9   1  -3  286.94   32.58
  -9   1  -3  270.45   22.79
   9  -1   3  264.78   25.67
   9   1   3  295.00   25.52
   9   1   3  309.51   26.05
  -9   1  -3  241.00   21.64
  -9   1  -3  248.78   17.84
  -9   1  -4 1538.17   79.82
  -9  -1  -4 1598.45   75.32
  -9   1  -4 1552.66   79.67
  -9  -1  -4 1589.01   74.96
  -9  -1  -4 1486.82   65.17
  -9  -1  -4 1437.17   67.89
  -9  -1  -4 1711.58   86.17
  -9   1  -4 1632.99   85.72
  -9   1  -4 1443.84   64.65
   9  -1   4 1576.33   72.90
   9   1   4 1620.42   69.36
   9   1   4 1891.35   72.28
  -9   1  -4 1335.43   65.98
  -9   1  -4 1230.33   56.24
  -9  -1  -5    6.60    4.97
  -9   1  -5    9.18    7.06
  -9   1  -5    5.73    5.76
  -9  -1  -5    1.88    4.74
  -9  -1  -5   13.81    5.18
  -9  -1  -5    7.56    4.81
  -9  -1  -5    8.86    7.25
  -9   1  -5    7.97    6.33
  -9   1  -5   10.69    4.89
   9   1   5    7.55    4.36
   9  -1   5    8.42    4.64
  -9   1  -5   12.44    4.14
  -9   1  -5    6.43    5.26
   9   1   5    8.68    4.62
  -9  -1  -6 3369.76  124.56
  -9  -1  -6 3342.59  129.30
  -9  -1  -6 3973.96  122.66
  -9   1  -6 3536.38  125.63
  -9   1  -6 3108.97  118.79
  -9   1  -6 3431.93  133.51
  -9  -1  -6 4022.16  153.41
  -9   1  -6 3773.91  153.11
  -9   1  -6 3271.29  142.01
   9   1   6 4077.44  140.97
  -9   1  -6 3314.41  143.03
  -9  -1  -6 3489.71  138.39
   9   1   6 4561.16  132.40
  -9   1  -7    8.83    4.18
  -9  -1  -7   12.89    8.92
  -9   1  -7    6.83    6.50
  -9   1  -7    4.62    3.16
  -9   1  -7    7.23    5.37
  -9   1  -7    2.43    5.79
  -9  -1  -7    2.00    4.20
   9   1   7    5.21    4.57
  -9  -1  -7    2.81    3.46
  -9  -1  -7    4.20    2.58
  -9  -1  -7    3.66    3.85
  -9   1  -8  632.74   34.70
  -9  -1  -8  605.62   48.32
  -9   1  -8  699.05   52.66
  -9   1  -8  560.88   34.21
  -9   1  -8  500.74   31.00
  -9   1  -8  598.75   41.89
   9   1   8  733.41   43.33
  -9  -1  -8  639.94   33.71
  -9  -1  -8  587.90   36.92
  -9  -1  -9   66.48    9.09
  -9  -1  -9   54.68   10.28
  -9   1  -9   50.02    8.64
  -9   1  -9   60.72    9.31
  -9   1  -9   76.65   14.18
  -9  -1  -9   73.11   16.43
  -9   1  -9   54.09   14.26
  -9   1  -9   69.42    9.78
  -9  -1 -10 1414.34   60.28
  -9  -1 -10 1447.16   54.36
  -9   1 -10 1565.12   72.87
  -9  -1 -10 1648.35   81.19
  -9   1 -10 1532.80   80.25
  -9   1 -10 1596.58   57.49
  -9   1 -11   23.02    7.92
  -9  -1 -11   24.03    5.77
  -9  -1 -11   29.26   10.51
  -9   1 -11   30.73   10.12
  -9  -1 -12 3037.75  110.91
  -9   1 -12 2828.17  109.15
  -9  -1 -12 2686.69   89.87
  -9  -1 -13   17.09    6.59
  -9   1 -13   10.78    5.47
  -9   1 -13    6.97    3.04
  -9  -1 -13    5.68    2.43
  -9  -1 -14  255.27   19.86
  -9   1 -14  243.30   19.95
  -9   1 -14  230.00   14.27
  -9   3  14   22.21    4.76
  -9  -3  14   31.14    7.29
   9  -3 -14   25.34    4.55
  -9   3  14   19.03    6.04
   9  -3 -13  360.01   18.32
  -9   3  13  290.70   24.28
   9   3 -13  329.59   16.64
   9  -3 -13  266.43   13.15
  -9  -3  13  381.24   27.77
  -9   3  13  306.32   21.98
  -9  -3  12  900.30   52.36
  -9   3  12  894.85   47.06
  -9  -3  12  888.84   46.12
   9  -3 -12  741.20   33.58
  -9  -3  12  879.67   36.95
   9   3 -12  809.07   36.41
   9  -3 -12  888.06   39.10
   9  -3 -12  906.04   38.72
  -9   3  12  778.41   47.80
  -9   3  12  824.91   40.36
   9   3 -12  653.12   33.41
   9  -3 -12  704.67   33.10
  -9  -3  11   -1.11    5.82
  -9   3  11    2.52    3.53
   9  -3 -11    5.24    3.30
  -9   3  11    0.95    3.71
  -9  -3  11    2.61    4.14
   9  -3 -11    2.69    3.20
   9   3 -11    6.13    2.87
  -9  -3  11    2.42    2.66
   9  -3 -11    3.99    2.81
   9  -3 -11    7.05    4.04
  -9   3  11    3.61    2.09
   9   3 -11    5.03    2.31
  -9   3  11    2.45    2.75
   9  -3 -10 1087.41   49.38
  -9   3  10 1048.59   61.64
  -9  -3  10 1281.86   65.89
   9  -3 -10 1048.23   49.91
  -9  -3  10 1133.10   51.54
   9   3 -10 1008.54   46.99
   9  -3 -10 1166.03   52.88
   9   3 -10 1054.56   47.16
  -9   3  10 1116.49   45.79
  -9   3  10 1017.30   52.79
  -9  -3  10 1284.38   72.28
  -9   3  10 1163.12   61.68
   9   3 -10 1082.27   48.30
  -9  -3   9  323.35   35.92
  -9   3   9  327.77   30.31
   9  -3  -9  275.20   21.59
   9   3  -9  266.72   19.81
  -9   3   9  287.24   29.47
   9   3  -9  244.96   19.34
  -9  -3   9  323.68   32.54
  -9  -3   9  295.74   26.17
  -9  -3   9  294.06   23.79
   9  -3  -9  264.56   22.93
   9  -3  -9  298.27   24.00
   9  -3  -9  216.71   22.71
  -9   3   9  269.72   19.41
  -9   3   9  256.53   24.19
   9  -3  -9  243.79   22.60
   9   3  -9  265.27   20.91
   9   3  -8   17.82    5.57
  -9   3   8   21.55    7.31
  -9   3   8   19.25    5.22
  -9  -3   8   11.97    8.57
   9   3  -8   30.67    6.85
  -9   3   8   31.86   10.26
  -9  -3   8   27.37   10.46
  -9  -3   8   24.60    7.39
   9  -3  -8    9.10    4.86
  -9  -3   8    9.17    5.15
   9   3  -8   14.06    4.81
   9  -3  -8   13.70    5.97
   9   3  -8   30.29    7.03
  -9   3   8   17.59    8.06
   9   3  -8   11.54    3.87
  -9   3   8   17.65    6.51
   9   3  -8   30.65    9.37
   9   3  -7  384.96   26.87
   9   3  -7  376.64   37.03
  -9   3   7  318.00   30.89
  -9   3   7  374.03   25.01
  -9  -3   7  417.96   43.65
   9   3  -7  331.45   24.65
  -9   3   7  347.09   32.83
   9   3  -7  352.04   24.03
  -9  -3   7  397.23   32.63
   9   3  -7  357.07   25.37
  -9  -3   7  367.38   28.86
   9  -3  -7  343.75   27.56
   9   3  -7  360.30   25.87
   9  -3  -7  408.56   29.42
   9   3  -7  314.64   21.39
   9  -3  -7  383.52   26.02
  -9  -3   7  394.66   31.40
  -9   3   7  290.56   30.66
   9   3  -7  344.49   24.86
   9  -3  -7  338.14   31.15
   9   3  -6 1345.71   56.15
  -9  -3   6 1470.35   61.39
  -9  -3   6 1624.41   73.11
  -9   3   6 1344.13   74.68
  -9  -3   6 1591.14   85.09
   9   3  -6 1427.56   63.56
  -9   3   6 1378.79   73.17
  -9   3   6 1533.93   62.33
  -9   3   6 1542.80   76.25
  -9   3   6 1477.67   76.27
   9   3  -6 1314.38   61.05
   9   3  -6 1430.01   59.58
  -9  -3   6 1513.65   72.51
  -9  -3   6 1536.15   68.78
   9   3  -6 1461.48   62.22
   9   3  -6 1421.01   62.88
   9  -3  -6 1569.06   68.11
   9  -3  -6 1531.01   70.00
  -9  -3   6 1576.44   66.53
   9   3  -6 1352.24   63.27
  -9  -3   5   46.16   10.42
  -9   3   5   26.25    8.85
   9   3  -5   37.13    6.41
  -9   3   5   43.93   10.44
  -9  -3   5   35.80   12.60
  -9   3   5   35.51   10.44
  -9   3   5   37.96    7.95
  -9   3   5   53.28   12.08
   9   3  -5   32.59    7.76
  -9   3   5   49.75   12.58
   9   3  -5   34.05    6.86
   9   3  -5   37.56    8.11
  -9  -3   5   40.13    9.43
   9   3  -5   42.79    9.06
   9  -3  -5   48.97    9.88
   9  -3  -5   47.89   10.53
  -9  -3   5   42.33    8.60
  -9   3   5   48.81   11.32
   9   3  -5   52.83   10.13
   9  -3  -5   34.09   10.20
   9   3  -4  884.44   61.26
  -9  -3   4 1052.73   66.25
   9   3  -4  832.04   44.00
  -9   3   4  849.67   48.83
  -9   3   4  790.94   47.52
  -9   3   4  835.10   41.80
  -9   3   4  808.94   50.60
  -9  -3   4  756.98   43.99
  -9   3   4  761.27   48.37
   9   3  -4  744.32   35.31
  -9  -3   4  842.52   44.44
   9  -3  -4  815.55   40.90
   9   3  -4  871.10   39.25
   9   3  -4  822.85   41.41
  -9  -3   4  816.03   45.31
   9  -3  -4  819.52   44.98
   9  -3  -4  883.45   47.48
  -9   3   4  743.55   45.67
  -9  -3   4  749.55   39.94
   9   3  -4  733.60   44.54
   9  -3  -4  734.92   48.99
  -9   3   3  539.72   31.73
   9   3  -3  497.26   35.54
   9  -3  -3  485.13   38.20
  -9  -3   3  544.99   44.49
   9  -3  -3  494.96   29.79
   9   3  -3  587.15   29.43
   9   3  -3  538.59   31.45
  -9  -3   3  529.25   34.52
   9   3  -3  518.81   33.39
  -9  -3   3  627.78   49.78
   9  -3  -3  551.77   34.74
   9   3  -3  600.66   48.90
  -9  -3   3  662.38   51.42
   9   3  -3  574.17   49.86
   9   3  -3  535.34   34.11
  -9   3   3  567.09   37.89
  -9   3   3  497.18   34.75
  -9  -3   3  494.63   32.87
  -9   3   3  481.83   36.20
  -9  -3   3  557.92   33.87
   9  -3  -3  541.09   35.30
  -9   3   3  491.21   34.17
  -9  -3   3  477.57   29.48
  -9  -3   2  631.23   47.42
  -9  -3   2  640.98   36.00
  -9   3   2  552.18   35.97
  -9  -3   2  552.39   31.54
   9  -3  -2  611.29   37.09
   9   3  -2  641.15   33.91
  -9  -3   2  612.49   36.87
   9   3  -2  571.95   35.66
  -9  -3   2  747.02   53.38
   9   3  -2  621.60   48.76
  -9  -3   2  712.19   52.81
   9   3  -2  666.49   37.56
   9   3  -2  609.49   51.43
  -9   3   2  654.07   40.00
   9   3  -2  608.09   39.81
   9  -3  -2  533.63   40.34
  -9  -3   2  524.11   33.50
  -9   3   2  486.04   36.17
  -9  -3   2  628.56   36.26
   9   3  -1  263.94   25.06
   9  -3  -1  209.65   23.64
  -9  -3   1  220.67   27.49
  -9   3   1  256.41   23.96
  -9  -3   1  241.39   20.61
   9  -3  -1  245.06   21.71
  -9   3   1  211.49   20.63
  -9  -3   1  215.93   18.13
   9   3  -1  268.56   19.77
  -9  -3   1  231.74   21.13
   9   3  -1  250.06   21.75
  -9  -3   1  306.62   33.27
   9   3  -1  232.52   30.13
   9   3  -1  244.56   28.94
  -9  -3   1  287.28   32.00
   9   3  -1  280.24   22.60
  -9   3   1  254.89   23.17
  -9   3   1  250.48   21.58
  -9  -3   1  251.72   20.84
  -9   3   1  253.43   20.20
  -9  -3   1  261.24   22.44
   9  -3   0 2849.06  105.88
   9  -3   0 2368.79  112.25
  -9  -3   0 2853.00  125.28
  -9   3   0 2843.69  112.62
  -9  -3   0 2985.28  107.99
   9  -3   0 3016.61  109.27
   9   3   0 3129.96  103.38
  -9  -3   0 2746.73  107.67
  -9  -3   0 3330.23  133.23
   9   3   0 3116.19  110.14
   9   3   0 2689.07  128.40
   9   3   0 2829.81  124.61
  -9  -3   0 3333.66  132.81
   9   3   0 3239.74  110.07
  -9   3   0 3174.03  111.53
  -9  -3   0 3144.61  107.70
  -9   3   0 2754.05  103.97
  -9   3   0 3248.74  110.09
  -9  -3   0 3397.32  114.45
  -9   3  -1  945.53   46.44
  -9  -3  -1 1087.93   50.01
  -9   3  -1 1097.70   50.80
  -9  -3  -1  981.52   62.88
  -9  -3  -1  837.19   53.93
   9   3   1 1130.72   45.00
  -9   3  -1  939.43   52.02
  -9  -3  -1 1074.73   51.01
   9  -3   1 1050.20   49.85
   9   3   1  992.10   58.18
  -9  -3  -1 1026.80   49.73
   9   3   1 1120.94   51.40
  -9  -3  -1 1047.12   64.76
   9   3   1 1120.31   57.08
   9  -3   1  962.67   46.99
   9  -3   1  875.66   53.34
  -9  -3  -1 1163.29   55.49
  -9   3  -1 1062.07   49.56
  -9   3  -1 1211.20   51.91
   9   3   1 1073.66   62.57
   9   3   1 1169.94   50.97
   9   3   2  281.09   20.61
   9   3   2  262.85   27.28
   9  -3   2  186.26   21.20
   9   3   2  244.15   20.93
  -9  -3  -2  211.52   26.79
  -9  -3  -2  209.65   23.89
   9  -3   2  228.25   19.56
  -9   3  -2  200.25   21.03
  -9  -3  -2  230.32   20.76
  -9   3  -2  190.29   20.39
  -9  -3  -2  227.08   20.56
   9   3   2  241.23   20.21
  -9  -3  -2  247.71   22.74
  -9  -3  -2  238.62   22.65
  -9   3  -2  263.83   20.44
  -9   3  -2  246.31   19.42
  -9   3  -2  261.51   21.23
  -9   3  -3  433.96   32.81
  -9   3  -3  444.68   31.44
  -9   3  -3  550.89   33.70
   9   3   3  530.06   28.65
   9   3   3  503.83   38.01
  -9   3  -3  371.70   32.89
   9  -3   3  430.75   32.34
   9   3   3  541.76   31.77
  -9  -3  -3  436.76   39.47
  -9  -3  -3  415.68   35.02
   9  -3   3  518.57   29.92
  -9   3  -3  370.81   30.17
  -9   3  -3  365.66   30.16
  -9  -3  -3  549.63   33.68
   9   3   3  542.89   30.28
  -9   3  -3  479.84   29.98
  -9  -3  -3  563.42   35.14
  -9  -3  -3  468.59   33.12
  -9  -3  -4  748.66   43.30
  -9  -3  -4  660.99   50.05
   9   3   4  835.76   40.21
  -9  -3  -4  615.28   44.94
   9   3   4  773.78   48.30
  -9  -3  -4  781.48   42.83
  -9   3  -4  567.56   39.76
   9   3   4  817.22   37.67
  -9  -3  -4  962.71   54.10
  -9   3  -4  620.37   44.29
   9   3   4  839.02   49.33
  -9   3  -4  719.60   38.08
  -9   3  -4  651.91   41.77
  -9   3  -4  703.14   42.63
  -9   3  -4  834.19   43.30
  -9  -3  -5  191.69   23.53
  -9   3  -5  178.93   20.69
   9   3   5  290.97   27.54
  -9  -3  -5  315.53   28.53
  -9   3  -5  235.07   25.29
   9   3   5  288.90   20.50
   9   3   5  302.50   27.47
  -9   3  -5  240.43   22.98
  -9   3  -5  277.41   23.55
  -9   3  -5  247.75   23.95
  -9  -3  -5  252.40   23.52
   9   3   6 3524.70  135.32
  -9  -3  -6 4099.55  139.38
  -9   3  -6 3236.06  135.00
   9   3   6 3663.93  120.07
   9   3   6 3960.96  138.41
  -9   3  -6 3524.15  129.26
  -9   3  -6 3524.37  129.50
  -9   3  -6 3789.63  130.19
  -9   3  -6 3445.70  133.42
  -9  -3  -6 3565.04  130.80
   9   3   7  288.57   26.10
  -9  -3  -7  320.66   27.52
  -9   3  -7  293.11   27.83
  -9  -3  -7  294.66   25.17
   9   3   7  329.77   27.67
   9   3   7  333.49   26.15
  -9   3  -7  284.56   23.88
  -9   3  -7  301.46   24.85
  -9   3  -7  290.07   24.54
  -9   3  -7  298.75   27.29
  -9  -3  -8  324.18   26.49
  -9   3  -8  288.47   27.03
  -9   3  -8  282.23   23.87
  -9   3  -8  321.41   24.03
  -9   3  -8  357.06   26.58
  -9   3  -8  319.30   28.08
   9   3   8  371.81   26.32
  -9  -3  -8  334.64   24.10
  -9  -3  -9  582.30   34.74
  -9   3  -9  512.05   35.35
  -9   3  -9  554.29   31.09
   9   3   9  538.58   34.00
  -9   3  -9  569.15   34.40
  -9   3  -9  565.58   38.17
  -9   3  -9  515.68   32.16
   9   3   9  606.58   32.93
  -9  -3  -9  514.74   30.04
  -9  -3 -10  781.71   32.78
  -9   3 -10  727.08   34.53
  -9   3 -10  792.03   34.17
  -9   3 -10  845.39   41.19
   9   3  10  874.09   35.56
  -9  -3 -10  807.53   29.35
  -9  -3 -10  833.49   33.87
  -9  -3 -11  138.23   11.17
  -9  -3 -11  131.39   12.69
   9   3  11  155.82   14.94
   9   3  11  156.28   13.87
  -9   3 -11  154.48   17.22
  -9   3 -11  137.28   13.67
   9   3  12 2005.73   45.78
  -9  -3 -12 1841.77   39.52
  -9   5  11    2.44    1.72
   9   5 -11    2.55    1.39
  -9  -5  11    1.17    1.47
   9  -5 -11    4.73    1.93
  -9   5  11    5.81    1.70
   9   5 -11    1.27    1.21
  -9  -5  10  408.87   22.72
  -9   5  10  432.42   23.52
   9   5 -10  487.05   23.99
   9  -5 -10  437.48   21.47
   9  -5 -10  480.34   22.94
  -9  -5  10  439.69   24.35
  -9   5  10  423.77   25.41
  -9   5  10  486.21   20.91
   9  -5 -10  456.99   22.03
  -9  -5  10  433.56   24.56
   9  -5  -9  734.64   29.93
   9   5  -9  566.04   26.79
   9  -5  -9  655.50   28.81
   9   5  -9  546.24   25.12
  -9  -5   9  700.65   33.02
   9  -5  -9  719.09   30.40
  -9   5   9  649.66   33.17
   9   5  -9  691.69   30.77
  -9   5   9  720.66   27.93
  -9  -5   9  623.59   30.19
  -9  -5   8   55.60    8.36
  -9   5   8   49.06    8.27
   9   5  -8   61.20    8.41
   9   5  -8   58.78    7.60
   9  -5  -8   45.36    7.08
   9   5  -8   50.13    6.71
  -9  -5   8   56.18    8.94
   9  -5  -8   56.05    8.05
  -9   5   8   67.85    9.97
  -9   5   8   58.11    7.27
  -9  -5   8   62.66    9.91
  -9  -5   7  597.77   33.30
  -9   5   7  598.49   33.74
   9   5  -7  606.91   32.19
   9   5  -7  591.89   29.94
   9   5  -7  575.66   29.71
  -9  -5   7  659.66   36.26
   9  -5  -7  685.61   34.10
  -9   5   7  572.46   33.88
   9   5  -7  561.10   29.15
  -9  -5   7  655.03   37.80
  -9   5   7  717.58   31.60
   9   5  -6  574.69   30.23
   9   5  -6  550.19   30.48
  -9  -5   6  605.00   36.23
   9  -5  -6  690.37   35.57
  -9   5   6  666.94   31.82
  -9   5   6  628.07   35.02
   9   5  -6  613.54   32.58
   9   5  -6  565.47   30.62
  -9  -5   6  666.87   39.22
  -9  -5   6  607.06   34.25
  -9   5   5    5.75    3.42
   9   5  -5    8.73    3.44
   9  -5  -5   11.76    4.62
  -9  -5   5    9.47    5.15
   9   5  -5   18.14    5.03
  -9  -5   5    4.58    4.03
   9   5  -5    6.25    3.24
   9   5  -5    8.38    3.55
  -9   5   5   14.57    4.31
  -9  -5   5    6.38    3.91
   9   5  -4  430.76   27.60
   9  -5  -4  510.90   28.68
   9   5  -4  478.42   26.64
   9  -5  -4  499.00   30.57
  -9  -5   4  490.71   33.26
  -9  -5   4  504.38   35.66
   9   5  -4  465.78   28.82
  -9   5   4  503.76   30.82
  -9   5   4  550.41   28.68
  -9  -5   4  456.71   30.08
   9  -5  -3 1115.55   48.01
   9   5  -3 1158.29   46.91
  -9  -5   3 1162.29   56.27
   9   5  -3 1029.25   48.90
   9  -5  -3 1062.56   50.55
   9   5  -3 1019.09   50.21
  -9   5   3 1153.80   51.21
  -9  -5   3 1187.00   59.81
   9   5  -3 1063.57   49.87
  -9  -5   2  221.07   23.84
   9  -5  -2  226.15   17.53
   9   5  -2  243.93   17.22
   9   5  -2  227.81   19.03
  -9  -5   2  227.14   22.31
   9  -5  -2  216.02   18.95
   9   5  -2  207.03   19.84
  -9   5   2  253.50   19.65
  -9  -5   2  282.50   18.01
  -9   5   2  249.46   17.72
  -9   5   1  369.80   22.83
  -9   5   1  356.37   22.78
   9  -5  -1  326.10   21.28
   9   5  -1  349.57   20.71
   9   5  -1  358.31   24.40
  -9  -5   1  352.85   28.24
   9   5  -1  347.37   24.78
  -9  -5   1  394.56   31.87
   9   5  -1  309.40   25.61
  -9   5   1  347.85   22.94
  -9   5   1  372.41   24.07
  -9  -5   1  376.89   21.56
   9   5   0  906.83   44.20
  -9  -5   0  933.82   39.31
  -9   5   0  919.51   42.16
   9   5   0  911.56   42.63
   9  -5   0  768.30   37.57
  -9  -5   0  923.91   52.24
   9   5   0  804.55   45.67
  -9   5   0  878.60   40.93
  -9   5   0  977.96   42.20
   9   5   1  209.00   18.22
  -9  -5  -1  226.30   16.38
  -9   5  -1  220.72   17.68
   9   5   1  218.50   17.46
   9  -5   1  170.89   14.16
  -9  -5  -1  195.12   22.00
   9   5   1  208.40   20.54
  -9   5  -1  201.20   16.75
  -9   5  -1  232.71   18.51
  -9   5  -1  233.92   18.01
   9   5   2  587.58   32.24
  -9  -5  -2  585.63   29.94
  -9   5  -2  594.20   31.67
   9   5   2  576.09   30.01
  -9  -5  -2  550.79   38.41
   9   5   2  578.06   36.43
  -9   5  -2  543.30   30.22
  -9   5  -2  611.69   32.13
  -9   5  -2  649.63   33.55
  -9   5  -3 1686.05   64.13
  -9  -5  -3 1647.32   62.53
   9   5   3 1615.90   60.38
  -9  -5  -3 1630.72   74.63
   9   5   3 1668.30   63.76
  -9   5  -3 1624.08   64.12
  -9   5  -3 1484.36   62.78
   9   5   4  411.10   23.77
  -9  -5  -4  446.29   25.05
   9   5   4  423.22   21.70
  -9  -5  -4  458.01   22.97
  -9   5  -4  430.95   25.68
  -9   5  -4  487.04   27.96
  -9   5  -4  390.22   25.40
  -9  -5  -4  414.67   31.60
   9   5   4  441.84   29.40
   9   5   5  177.36   16.91
  -9  -5  -5  186.45   14.73
   9   5   5  182.09   13.34
  -9  -5  -5  153.39   17.88
  -9   5  -5  183.69   15.33
   9   5   5  163.82   16.54
  -9   5  -5  196.88   16.76
  -9   5  -5  161.05   15.24
   9   5   6 1290.17   53.23
   9   5   6 1070.92   50.79
  -9   5  -6 1178.98   51.12
  -9   5  -6 1162.91   49.12
  -9  -5  -6 1245.17   48.50
   9   5   7  405.94   23.70
   9   5   7  353.19   23.17
   9   5   7  342.19   22.74
  -9   5  -7  443.57   25.07
  -9   5  -7  380.85   23.48
  -9  -5  -7  375.28   20.93
   9   5   8  166.00   13.52
  -9  -5  -8  143.36   11.17
   9   5   8  133.68   12.51
  -9   5  -8  179.15   14.28
  -9   5  -8  146.57   13.09
   9   5   9 1224.34   48.26
  -9   5  -9 1245.13   48.91
   9   5   9 1214.67   47.73
  -9  -5  -9 1346.17   45.25
 -10   0  15    0.72    3.43
  10   0 -15   -0.69    1.90
  10   0 -14  909.21   42.61
  10   0 -14  905.33   38.00
 -10   0  14  790.23   52.06
 -10   0  13   -1.17    4.16
  10   0 -13    2.00    1.79
 -10   0  13    2.03    2.79
  10   0 -12 2152.53   81.08
 -10   0  12 2246.12   87.16
  10   0 -12 2408.73   84.24
 -10   0  12 2324.56  111.95
 -10   0  12 2477.05  101.34
  10   0 -11    6.57    3.59
 -10   0  11    0.66    2.58
  10   0 -11    1.04    2.62
 -10   0  11   -1.52    6.83
 -10   0  11    2.12    4.46
  10   0 -11   -0.45    1.73
  10   0 -10   42.76    8.76
  10   0 -10   54.16    9.14
 -10   0  10   51.51   10.19
 -10   0  10   56.96   15.18
 -10   0  10   69.41   15.80
 -10   0  10   50.27   15.93
 -10   0  10   49.65   13.67
  10   0  -9   -1.17    3.46
  10   0  -9    4.02    3.16
 -10   0   9    3.41    6.64
 -10   0   9    1.22    5.46
 -10   0   9    1.51    3.17
 -10   0   9    1.46    4.63
  10   0  -9   -0.67    2.99
 -10   0   9    8.78    6.15
  10   0  -8 1488.76   66.57
  10   0  -8 1655.99   67.37
 -10   0   8 1595.75   73.29
 -10   0   8 1757.16   95.35
 -10   0   8 1615.74   98.02
 -10   0   8 1707.27   89.09
  10   0  -8 1785.70   83.31
 -10   0   8 1656.14   92.64
  10   0  -8 1842.77   92.30
  10   0  -8 1602.69   67.90
 -10   0   7    3.19    4.38
 -10   0   7   -1.52    7.26
 -10   0   7    1.79    9.01
  10   0  -7    1.31    3.61
  10   0  -7   -1.03    3.26
  10   0  -7    4.83    3.80
  10   0  -7    2.17    2.72
  10   0  -7    0.60    2.31
  10   0  -6 4274.96  138.33
 -10   0   6 3945.48  146.49
 -10   0   6 4346.97  175.44
  10   0  -6 3964.27  138.87
  10   0  -6 4408.88  168.64
  10   0  -6 3859.32  152.71
 -10   0   6 3652.26  155.74
  10   0  -6 4474.32  145.73
 -10   0   5    6.19    7.37
  10   0  -5    1.50    2.64
  10   0  -5    2.83    3.24
 -10   0   5   11.59    6.63
  10   0  -5    3.32    3.80
 -10   0   4   14.41    7.87
  10   0  -4    9.33    3.79
 -10   0   4   22.79    7.17
 -10   0   4   27.21   12.70
  10   0  -4    7.59    3.86
 -10   0   4   21.34   11.64
 -10   0   4    8.52    4.44
  10   0  -4   12.88    5.12
  10   0  -3    8.71    4.19
 -10   0   3   -1.45    7.95
  10   0  -3    5.54    3.02
 -10   0   3    7.62    4.99
 -10   0   3    1.51    6.36
 -10   0   3    3.59    4.28
 -10   0   3   -1.03    4.90
 -10   0   3    5.39    8.55
 -10   0   3   -0.61    2.72
 -10   0   2 3716.07  146.48
 -10   0   2 2666.29  101.80
 -10   0   2 2758.31  107.00
 -10   0   2 3633.17  137.51
 -10   0   2 2339.85  104.86
  10   0  -2 2487.36  116.73
 -10   0   2 2233.18  108.03
 -10   0   2 3040.30  121.37
  10   0  -2 3079.24  104.56
 -10   0   2 3465.27  133.25
 -10   0   1    1.15    5.79
  10   0  -1    5.73    3.41
 -10   0   1   -1.56    4.63
 -10   0   1    3.54    5.92
 -10   0   1    0.71    3.00
  10   0  -1    1.81    2.35
  10   0  -1    1.15    4.09
 -10   0   1   -1.44    6.05
 -10   0   1    1.92    4.30
 -10   0   1    3.71    3.91
  10   0   0 3768.97  115.67
 -10   0   0 4056.94  139.68
 -10   0   0 3571.50  122.15
 -10   0   0 2799.38  115.25
  10   0   0 2607.08  109.86
  10   0   0 2815.67  129.10
 -10   0   0 3151.32  123.94
 -10   0   0 3954.56  147.67
 -10   0   0 3233.05  114.46
  10   0   1    2.00    2.51
 -10   0  -1   14.53    8.38
 -10   0  -1   10.25    7.09
 -10   0  -1   10.28    4.99
 -10   0  -1   23.05   10.48
 -10   0  -1   -0.69    3.11
  10   0   1   -1.15    4.46
 -10   0  -1    7.33    4.48
 -10   0  -1    5.79    3.31
 -10   0  -2   39.14    8.79
 -10   0  -2   44.25   13.21
 -10   0  -2   39.08    7.90
 -10   0  -2   70.84   11.01
  10   0   2   36.37   11.17
 -10   0  -2   26.52    8.38
 -10   0  -2   30.42   10.56
 -10   0  -3    3.46    4.49
 -10   0  -3    8.68    4.51
 -10   0  -3    4.78    3.04
 -10   0  -3    5.43    6.10
  10   0   3   15.42    7.42
 -10   0  -3    6.12    4.38
  10   0   3    3.70    3.32
 -10   0  -4 5714.46  196.15
 -10   0  -4 5530.49  194.42
 -10   0  -4 5682.87  203.59
 -10   0  -4 5136.13  167.43
 -10   0  -4 4797.56  170.07
 -10   0  -4 4602.87  172.50
  10   0   4 5495.18  191.75
  10   0   4 5926.05  180.79
 -10   0  -5    1.12    2.51
 -10   0  -5    1.80    2.26
 -10   0  -5    0.67    3.21
 -10   0  -5    1.36    5.70
  10   0   5    9.98    4.72
 -10   0  -5   -1.13    5.08
 -10   0  -5    3.41    4.77
 -10   0  -6 4829.86  177.36
 -10   0  -6 4281.72  136.79
 -10   0  -6 4141.52  140.75
 -10   0  -6 4213.03  163.71
  10   0   6 4523.80  155.56
 -10   0  -6 4359.60  165.45
 -10   0  -6 3960.75  145.08
 -10   0  -7    4.01    7.64
 -10   0  -7    1.83    2.30
 -10   0  -7   10.37    7.09
 -10   0  -7    0.63    1.99
 -10   0  -8  357.24   25.75
 -10   0  -8  466.95   41.66
 -10   0  -9    1.04    2.19
 -10   0  -9    8.53    5.80
 -10   0 -10 2514.98   91.30
 -10   0 -10 2949.34  118.28
 -10   0 -11    1.44    1.90
 -10   0 -11    5.68    4.98
 -10   0 -12   -0.26    0.01
 -10   0 -12 2114.29   65.71
 -10   0 -13    5.20    2.59
 -10   0 -13   10.33    4.73
  10   2 -14  728.69   32.10
  10  -2 -14  745.51   31.23
 -10  -2  14  839.89   32.59
 -10   2  14  719.10   33.13
 -10   2  13   12.74    4.11
 -10  -2  13   24.14    7.99
  10   2 -13   14.98    3.68
 -10  -2  13   14.26    4.33
  10  -2 -13   16.17    3.72
  10   2 -13   15.11    4.29
  10  -2 -13   18.61    4.62
  10  -2 -12 1167.47   45.39
 -10  -2  12 1116.32   49.55
  10   2 -12 1073.16   44.46
 -10   2  12 1109.69   42.14
  10   2 -12 1144.13   45.49
  10  -2 -12 1079.06   45.63
 -10   2  12 1123.04   50.90
  10  -2 -11  137.34   14.16
  10   2 -11  157.19   13.91
 -10  -2  11  150.42   15.92
  10  -2 -11  120.41   11.80
  10  -2 -11  158.37   15.14
 -10   2  11  127.61   18.82
  10  -2 -11  160.65   13.74
 -10   2  11  163.04   22.45
 -10   2  11  140.23   12.19
  10   2 -11  155.93   13.73
 -10  -2  10   32.57   12.02
 -10   2  10   23.58    7.73
  10  -2 -10   28.85    6.05
 -10   2  10   24.45    8.65
 -10   2  10   23.01    9.53
  10   2 -10   32.72    6.59
  10  -2 -10   35.19    7.67
  10   2 -10   39.15    7.43
  10  -2 -10   39.06    7.95
  10  -2 -10   25.64    6.07
  10   2 -10   37.79    6.56
 -10   2  10   27.79    5.84
  10   2 -10   38.69    7.24
 -10   2  10   32.26    8.01
  10   2  -9  132.74   14.31
  10   2  -9  180.41   24.20
 -10   2   9  115.06   18.63
 -10  -2   9  155.18   20.79
 -10   2   9  153.62   14.52
 -10  -2   9  227.26   30.65
 -10   2   9  156.58   20.13
  10  -2  -9  143.53   13.54
 -10   2   9  176.48   23.92
  10   2  -9  141.19   13.77
  10  -2  -9  160.82   17.20
  10   2  -9  139.94   14.13
  10   2  -9  145.99   14.84
  10  -2  -9  142.58   15.60
  10  -2  -9  144.80   14.80
  10   2  -9  146.11   14.59
  10  -2  -9  160.68   17.15
  10   2  -9  129.87   12.72
 -10   2   9  168.11   18.44
 -10  -2   8 2880.10  125.47
 -10   2   8 2371.05   98.33
  10  -2  -8 2105.47   78.19
 -10   2   8 2254.88  105.49
  10   2  -8 2197.17   80.95
  10  -2  -8 2287.17   85.85
  10   2  -8 2008.64   80.93
  10  -2  -8 2344.79   83.54
  10   2  -8 2743.80  114.84
  10   2  -8 2083.27   82.46
  10  -2  -8 2055.34   92.56
 -10   2   8 2145.47   89.21
 -10   2   8 1813.79   97.12
 -10  -2   8 2449.30  101.85
  10   2  -8 2007.28   77.13
  10  -2  -8 2257.60   97.41
 -10   2   7   11.74    6.95
 -10   2   7   14.99    8.17
  10  -2  -7    8.18    4.34
  10  -2  -7    8.53    4.44
 -10  -2   7    4.60    4.56
  10   2  -7    6.95    3.70
  10  -2  -7   15.29    4.96
  10   2  -7    8.98    4.28
  10   2  -7   13.72    4.93
  10   2  -7    4.08    3.35
 -10   2   7    9.70    6.94
 -10  -2   7   10.92    6.49
  10   2  -7    7.10    4.11
  10  -2  -7    8.60    5.11
  10   2  -7    8.34    7.32
  10  -2  -7    9.69    5.76
 -10   2   7    7.67    4.72
  10   2  -7    7.67    3.25
 -10  -2   7   13.42    5.08
  10  -2  -6 2635.93  113.55
  10   2  -6 2761.26  106.77
 -10   2   6 2928.77  125.12
  10   2  -6 3007.83  100.41
 -10  -2   6 2542.44  106.76
  10   2  -6 2823.73  101.32
  10  -2  -6 3028.62  104.79
  10   2  -6 2574.50  100.55
  10   2  -6 2674.36  102.04
  10  -2  -6 3001.06  101.52
 -10  -2   6 3552.06  142.04
  10  -2  -6 2517.35  108.77
 -10   2   6 2823.05  124.84
 -10  -2   6 3790.73  132.49
  10  -2  -6 2821.74  105.85
  10   2  -6 2598.33   95.11
 -10  -2   6 2684.95  101.91
 -10  -2   6 3480.91  133.79
 -10   2   6 2587.65  124.86
  10  -2  -5  195.92   23.30
  10   2  -5  250.82   23.28
 -10  -2   5  193.82   22.30
  10   2  -5  262.24   19.26
  10   2  -5  232.93   19.51
 -10  -2   5  210.33   21.91
  10  -2  -5  229.40   20.13
  10   2  -5  201.16   19.07
  10  -2  -5  227.58   18.77
  10  -2  -5  165.99   20.21
 -10  -2   5  301.10   35.38
 -10   2   5  260.24   24.10
 -10   2   5  224.68   28.69
 -10  -2   5  280.76   29.67
 -10  -2   5  308.53   30.04
  10  -2  -5  231.05   21.32
  10   2  -5  220.25   16.81
 -10  -2   5  207.08   19.56
 -10  -2   5  273.85   31.76
 -10   2   5  173.10   26.69
 -10  -2   4  329.32   30.05
  10   2  -4  247.71   23.75
 -10  -2   4  171.55   21.08
  10   2  -4  246.23   18.31
  10   2  -4  238.53   19.66
 -10  -2   4  208.16   21.48
  10  -2  -4  230.49   19.88
  10  -2  -4  226.27   18.58
  10   2  -4  227.14   27.17
 -10  -2   4  306.80   35.83
  10  -2  -4  163.18   19.77
 -10   2   4  223.92   23.28
 -10   2   4  242.49   23.39
 -10   2   4  254.74   28.97
 -10  -2   4  286.01   27.94
  10  -2  -4  227.29   20.96
 -10   2   4  224.33   26.87
 -10  -2   4  272.26   26.80
  10   2  -4  208.21   16.05
 -10  -2   4  226.41   20.84
 -10  -2   4  267.30   30.33
 -10   2   4  247.88   30.48
 -10  -2   3  809.81   44.84
  10  -2  -3  507.11   39.52
  10   2  -3  650.81   41.50
 -10  -2   3  490.43   37.54
  10   2  -3  666.46   32.40
  10   2  -3  666.38   35.23
 -10  -2   3  740.46   51.96
  10  -2  -3  597.42   32.54
  10   2  -3  654.92   48.22
 -10  -2   3  775.53   57.54
  10   2  -3  658.37   54.43
  10  -2  -3  469.17   35.62
 -10   2   3  606.18   39.42
 -10   2   3  631.55   45.37
 -10  -2   3  618.84   41.36
 -10   2   3  667.71   40.07
  10  -2  -3  651.47   37.27
 -10   2   3  664.52   45.68
 -10  -2   3  630.23   41.34
  10  -2  -3  613.93   36.50
 -10  -2   3  705.91   48.22
 -10   2   3  531.10   45.00
  10   2  -3  568.69   29.13
 -10  -2   3  617.48   37.42
 -10   2   2 4312.53  144.88
 -10  -2   2 4831.26  155.37
  10  -2  -2 3274.67  147.10
  10  -2  -2 3548.34  154.58
 -10  -2   2 3656.19  152.92
  10   2  -2 4764.82  141.32
  10  -2  -2 4458.78  148.16
 -10   2   2 4659.06  164.08
  10  -2  -2 4351.07  148.48
 -10  -2   2 4705.60  156.86
  10   2  -2 4773.18  147.28
 -10  -2   2 4725.42  172.33
 -10   2   2 4919.54  156.76
 -10   2   2 4536.43  164.23
 -10  -2   2 4800.42  166.37
 -10   2   2 4211.98  166.72
 -10   2   2 4660.05  155.32
  10   2  -2 4165.97  137.24
 -10  -2   2 4541.08  154.15
  10   2  -2 4401.03  169.51
 -10  -2   2 5323.96  186.33
  10   2  -2 4489.50  181.98
  10   2  -1    4.62    4.85
  10   2  -1   10.38    8.48
 -10  -2   1    6.65    7.61
 -10   2   1   12.29    5.42
 -10  -2   1    6.08    5.69
  10  -2  -1    3.45    3.16
 -10   2   1    5.57    5.32
 -10  -2   1    6.52    5.01
 -10  -2   1    4.38    5.01
  10  -2  -1    7.06    3.76
 -10  -2   1    3.37    4.14
 -10  -2   1    6.83    7.00
  10   2  -1    4.43    2.92
  10  -2  -1    4.58    4.36
 -10  -2   1    9.17    6.67
 -10   2   1    1.09    5.21
 -10  -2   1    2.86    3.93
 -10   2   1    2.52    2.53
 -10  -2   1    6.02    4.11
  10   2   0 3188.13  129.08
 -10   2   0 3482.21  116.42
 -10  -2   0 2392.93  115.74
 -10   2   0 3585.29  133.93
 -10  -2   0 3603.59  124.85
  10  -2   0 3103.94  109.60
 -10   2   0 3121.18  123.34
 -10  -2   0 3077.15  115.94
  10  -2   0 3152.34  110.80
  10   2   0 3510.12  109.73
 -10  -2   0 2993.03  114.40
  10   2   0 3440.70  114.23
 -10  -2   0 3142.02  130.22
  10   2   0 3463.75  123.48
  10  -2   0 2582.50  118.38
 -10  -2   0 3193.46  117.44
 -10  -2   0 3306.33  116.67
 -10   2   0 3003.91  108.41
 -10   2  -1  392.50   33.15
 -10  -2  -1  604.04   35.87
  10   2   1  579.41   41.25
  10   2   1  589.69   38.24
  10  -2   1  452.28   35.79
 -10  -2  -1  417.61   34.74
 -10   2  -1  588.89   42.87
 -10  -2  -1  587.51   38.18
  10  -2   1  497.53   28.94
  10   2   1  609.35   29.64
 -10  -2  -1  543.80   34.32
  10   2   1  592.69   32.78
 -10  -2  -1  554.69   34.68
 -10   2  -1  494.40   29.24
 -10   2  -1  470.61   33.29
 -10   2  -1  597.51   32.78
 -10  -2  -1  523.67   34.39
  10   2   2   44.54    9.87
  10  -2   2   20.74    7.17
 -10  -2  -2   39.34   10.30
 -10  -2  -2   42.98    9.10
 -10   2  -2   32.19   10.06
 -10  -2  -2   35.95    9.15
  10   2   2   29.26    6.65
  10   2   2   26.68    6.57
 -10  -2  -2   29.77   11.34
 -10   2  -2   20.90    8.87
  10   2   2   64.05   12.51
 -10   2  -2   28.64    6.57
 -10   2  -2   27.31    8.03
 -10  -2  -2   26.39    7.05
 -10   2  -2   18.38    5.21
 -10   2  -2   19.59    6.62
 -10   2  -2   26.27    6.00
 -10  -2  -2   26.72    7.50
 -10  -2  -3  472.04   38.25
 -10   2  -3  595.94   32.15
 -10  -2  -3  668.20   38.98
 -10   2  -3  571.12   36.32
 -10   2  -3  641.90   45.29
 -10  -2  -3  617.00   39.29
 -10   2  -3  605.98   44.03
 -10  -2  -3  658.75   40.30
  10   2   3  668.68   34.53
 -10  -2  -3  727.54   50.28
 -10   2  -3  538.19   44.41
  10   2   3  585.76   40.12
  10   2   3  716.45   34.16
  10   2   3  652.53   39.76
  10  -2   3  505.67   37.74
 -10   2  -3  588.98   39.46
 -10   2  -3  651.77   34.79
 -10   2  -4 3658.33  142.56
 -10   2  -4 3713.96  139.82
 -10   2  -4 4006.04  135.60
  10   2   4 3991.89  144.93
 -10  -2  -4 4750.33  162.83
 -10   2  -4 3903.26  157.53
 -10  -2  -4 4198.40  141.98
 -10   2  -4 4082.06  153.99
 -10  -2  -4 3857.58  143.16
  10   2   4 3882.40  149.27
 -10   2  -4 3962.22  152.78
 -10  -2  -4 3946.06  143.74
  10   2   4 4480.95  134.42
  10   2   4 4346.67  144.07
  10  -2   4 3656.86  142.44
 -10   2  -4 3956.32  139.17
 -10   2  -5   39.86   11.11
 -10  -2  -5   51.68   11.15
  10   2   5   49.16   11.35
 -10  -2  -5   57.77   13.53
 -10   2  -5   56.56   14.18
 -10   2  -5   43.02    9.68
 -10   2  -5   43.43    8.24
 -10   2  -5   40.33    9.54
  10   2   5   58.36   11.10
 -10  -2  -5   42.66    8.91
 -10  -2  -5   37.68    9.22
 -10   2  -5   42.80    8.72
 -10   2  -6 2840.52  103.25
 -10   2  -6 2766.45  118.91
 -10  -2  -6 2695.96  109.87
  10   2   6 2978.84  116.15
 -10  -2  -6 3268.78  123.64
 -10   2  -6 2939.12  124.70
 -10   2  -6 2889.24  110.01
 -10   2  -6 2814.64  103.11
 -10   2  -6 2726.54  110.65
  10   2   6 2818.37  108.41
  10   2   6 3034.34   98.94
 -10  -2  -6 2930.03  105.80
 -10  -2  -6 2815.31  109.34
 -10  -2  -7 1005.55   56.98
 -10   2  -7  887.84   56.88
 -10   2  -7  910.75   42.65
 -10   2  -7  964.88   48.89
 -10   2  -7  912.87   48.16
 -10   2  -7  841.18   43.47
 -10   2  -7  874.71   50.60
  10   2   7  971.52   52.49
 -10  -2  -7  874.74   43.89
 -10  -2  -7  878.69   47.49
 -10  -2  -7  920.53   40.80
  10   2   8   10.50    4.56
 -10  -2  -8   18.05    5.09
 -10  -2  -8   16.10    3.75
 -10  -2  -8   16.54    5.73
 -10   2  -8   15.20    5.11
 -10   2  -8    8.25    4.74
 -10   2  -8   35.03    8.03
 -10   2  -8   29.00    8.73
 -10  -2  -8   11.04    6.03
 -10   2  -8   11.42    7.00
 -10  -2  -9  136.24   12.84
 -10  -2  -9  125.10   14.19
 -10   2  -9  143.87   14.99
 -10   2  -9  146.02   15.36
 -10   2  -9  145.23   14.52
 -10   2  -9  135.33   17.59
 -10  -2  -9  162.26   19.57
 -10   2  -9  123.67   18.25
 -10   2 -10 2412.90   85.61
 -10   2 -10 2147.21   82.51
 -10   2 -10 2514.48   96.14
  10   2  10 2618.09   88.88
 -10  -2 -10 2198.35   83.98
 -10  -2 -10 2197.86   79.02
 -10  -2 -10 2604.43   96.37
 -10   2 -10 2390.03   96.29
 -10  -2 -10 2478.04   86.32
 -10  -2 -11    1.59    2.36
 -10   2 -11    9.02    3.53
 -10   2 -11    7.42    4.79
 -10  -2 -11   10.82    3.70
  10   2  11    7.84    3.48
 -10  -2 -11    4.15    3.26
 -10   2 -11    3.86    3.96
 -10  -2 -12 1267.05   31.98
 -10  -2 -12 1302.70   39.15
 -10   4  12  993.73   33.83
  10   4 -12  873.68   33.87
  10  -4 -12  901.88   34.04
 -10  -4  12  933.01   39.03
  10  -4 -11  432.09   17.87
  10   4 -11  395.85   16.72
  10  -4 -11  454.33   17.35
 -10  -4  11  422.17   20.57
 -10  -4  11  438.92   22.98
 -10   4  11  458.45   21.10
  10   4 -10   14.21    3.62
  10  -4 -10   12.33    3.46
  10  -4 -10    8.92    3.27
  10  -4 -10   10.16    3.16
 -10   4  10   14.12    4.38
 -10  -4  10    6.73    3.68
  10  -4  -9  640.35   29.22
  10  -4  -9  569.88   29.31
 -10  -4   9  654.04   29.83
  10  -4  -9  592.50   30.71
  10   4  -9  522.84   27.24
  10  -4  -9  625.99   30.92
 -10   4   9  604.25   33.04
 -10   4   9  588.55   35.72
 -10  -4   9  586.30   35.98
  10   4  -9  555.16   28.59
 -10  -4   8 1273.25   48.40
  10   4  -8  988.85   43.90
  10  -4  -8 1096.63   47.94
  10   4  -8 1010.49   44.64
  10  -4  -8 1141.69   48.29
  10  -4  -8 1155.24   45.42
 -10  -4   8 1124.82   55.23
  10   4  -8  955.59   43.27
 -10   4   8 1134.94   44.72
 -10  -4   8 1154.45   56.47
  10   4  -8 1010.56   45.45
 -10   4   8 1106.99   54.43
 -10   4   7   11.08    3.75
  10   4  -7   14.05    4.21
 -10  -4   7   11.01    4.10
  10  -4  -7    6.83    3.55
  10  -4  -7    8.23    3.93
  10   4  -7    8.14    3.38
 -10  -4   7   11.58    6.44
 -10  -4   7   18.61    6.80
  10   4  -7   11.36    4.06
 -10   4   7   11.80    5.03
 -10  -4   7   19.34    7.01
  10   4  -7    9.28    3.52
 -10   4   6 1738.63   64.82
 -10  -4   6 1857.82   68.47
  10   4  -6 1469.79   61.97
  10  -4  -6 1751.74   68.91
 -10  -4   6 1845.30   80.49
  10  -4  -6 1709.69   68.24
 -10  -4   6 1780.84   78.50
  10   4  -6 1521.70   64.97
 -10   4   6 1682.78   71.10
 -10  -4   6 1615.06   60.40
  10   4  -6 1516.39   64.25
 -10  -4   6 1765.44   78.82
 -10   4   5  867.24   40.35
 -10  -4   5  841.65   41.97
  10   4  -5  757.11   37.83
 -10  -4   5  881.13   52.16
  10  -4  -5  860.06   42.96
 -10  -4   5  877.99   51.09
 -10   4   5  897.81   45.96
 -10  -4   5  863.95   38.54
  10   4  -5  702.30   39.20
 -10  -4   5  861.66   51.51
 -10  -4   4    6.75    4.84
  10   4  -4    3.96    3.12
  10  -4  -4    5.72    4.04
  10   4  -4   15.03    4.55
  10  -4  -4    5.30    4.19
 -10  -4   4    7.77    5.97
 -10  -4   4    9.06    5.93
  10   4  -4   15.09    5.17
 -10   4   4    5.88    3.21
 -10   4   4    7.84    4.02
  10  -4  -3 1582.51   65.92
  10   4  -3 1254.57   64.46
  10   4  -3 1578.33   60.00
  10   4  -3 1446.04   62.98
  10  -4  -3 1486.60   63.89
 -10  -4   3 1718.81   79.59
 -10  -4   3 1599.73   75.02
  10   4  -3 1570.40   64.46
 -10   4   3 1452.18   60.85
 -10   4   3 1577.62   66.54
 -10   4   3 1514.15   61.48
 -10   4   3 1627.89   62.83
  10   4  -3 1395.18   63.29
 -10  -4   3 1630.86   77.47
  10  -4  -2 1332.56   71.37
 -10  -4   2 1697.37   80.59
  10  -4  -2 1684.26   68.55
  10   4  -2 1409.83   70.10
  10   4  -2 1688.65   62.52
 -10  -4   2 1773.96   82.36
  10   4  -2 1647.39   67.49
  10  -4  -2 1702.64   68.04
  10   4  -2 1504.60   77.55
  10   4  -2 1442.54   76.15
  10   4  -2 1725.56   67.91
 -10   4   2 1670.90   68.57
 -10   4   2 1754.61   66.39
 -10  -4   2 1682.27   64.95
  10   4  -1    8.65    5.91
  10   4  -1   16.32    6.48
  10   4  -1   11.44    4.50
 -10   4   1   14.09    4.53
 -10  -4   1   11.90    7.39
  10   4  -1    8.47    4.20
 -10  -4   1   24.45    7.87
  10   4  -1   10.30    3.44
  10  -4  -1    8.01    3.97
  10   4  -1   15.79    5.61
  10   4  -1   11.25    4.47
 -10  -4   1   13.10    8.00
 -10   4   1    9.27    4.18
 -10  -4   1    7.94    3.87
 -10   4   1   13.97    4.36
  10  -4  -1    8.25    4.15
  10  -4   0 2072.50   98.02
  10   4   0 2688.76   97.64
 -10  -4   0 2661.94  110.43
  10  -4   0 2641.27   95.19
  10   4   0 2445.68  102.64
 -10  -4   0 2834.59  112.67
 -10  -4   0 2449.18  102.65
 -10  -4   0 2779.40   94.54
 -10   4   0 2776.51   94.10
 -10   4   0 2718.48   94.35
  10   4   0 2546.61  107.54
  10   4   0 2262.58  106.44
  10   4   0 2761.69   95.03
  10   4   1  930.13   44.60
 -10  -4  -1  825.86   52.35
  10  -4   1  832.96   40.99
  10   4   1  802.23   47.97
  10   4   1  804.14   51.80
  10   4   1  851.07   51.03
  10   4   1  885.31   40.95
 -10  -4  -1  745.79   46.67
 -10  -4  -1  859.49   41.63
 -10   4  -1  836.33   39.86
 -10  -4  -1  900.76   40.04
 -10   4  -1  859.84   41.29
 -10  -4  -2   18.58    7.61
  10   4   2   10.23    4.11
 -10  -4  -2    3.27    3.91
  10   4   2    8.72    5.20
 -10   4  -2    9.94    4.19
  10   4   2   14.78    6.18
  10   4   2   14.04    5.96
  10   4   2    8.69    3.39
 -10   4  -2    4.56    3.39
 -10  -4  -2   11.20    4.65
 -10   4  -2   18.03    4.86
 -10  -4  -3 1403.95   58.95
  10   4   3 1380.35   54.69
 -10  -4  -3 1307.74   69.14
  10   4   3 1388.30   57.33
 -10  -4  -3 1383.24   55.86
 -10   4  -3 1329.75   56.01
 -10   4  -3 1422.56   59.55
 -10   4  -3 1588.47   62.33
 -10  -4  -3 1212.62   63.83
 -10  -4  -4 1741.19   82.06
 -10  -4  -4 2125.57   77.54
  10   4   4 1964.12   69.82
  10   4   4 1972.47   81.31
 -10  -4  -4 1948.97   73.37
  10   4   4 2011.16   73.28
 -10   4  -4 2028.46   77.29
 -10   4  -4 1762.06   74.32
 -10   4  -4 2306.00   80.87
  10   4   5   15.58    5.36
 -10  -4  -5   25.11    6.33
  10   4   5   29.90    5.56
 -10   4  -5   16.20    5.43
 -10   4  -5   30.89    7.17
 -10   4  -5   15.88    5.15
  10   4   6 2400.65   88.47
 -10  -4  -6 2420.64   85.82
 -10  -4  -6 2143.26   83.99
 -10   4  -6 2265.27   85.66
 -10   4  -6 2208.64   86.68
  10   4   7  945.46   43.06
 -10  -4  -7  876.26   40.90
 -10   4  -7  843.49   43.09
  10   4   8   53.20    7.62
  10   4   8   42.51    7.37
 -10   4  -8   50.25    8.25
 -10   4  -8   55.70    8.81
 -10   4  -8   42.39    7.10
 -10  -4  -8   36.14    6.13
 -10  -4  -8   42.36    6.92
 -10  -4  -9  711.20   30.30
  10   4   9  735.34   31.45
  10   4   9  659.59   32.25
  10   4   9  590.67   31.92
 -10   4  -9  789.31   35.16
 -10   4  -9  673.62   34.02
 -10  -4  -9  738.61   31.64
 -10   4 -10 1145.39   46.33
 -10  -4 -10 1181.82   42.99
  10   4  10 1072.75   44.30
 -10  -4 -10 1122.10   40.81
  10   6  -5  714.56   30.16
  10  -6  -5  778.40   30.11
 -10  -6   5  842.97   33.63
 -10  -6   5  857.40   34.51
 -10   6   5  900.86   31.53
 -10   6   5  915.99   31.45
  10  -6  -5  792.67   30.13
  10  -6  -4    8.94    2.35
  10   6  -4    3.07    1.50
 -10  -6   4    5.87    2.59
 -10   6   4    2.57    1.63
 -10   6   4    4.94    1.79
  10  -6  -4    2.18    1.41
  10   6  -3  729.73   29.90
  10  -6  -3  662.22   28.43
 -10  -6   3  765.19   32.77
 -10   6   3  760.31   29.70
  10   6  -3  718.13   30.50
 -10  -6   3  773.51   34.05
 -10   6   3  802.90   29.86
 -10  -6   3  761.33   26.77
 -10  -6   2  624.97   29.61
  10   6  -2  621.07   26.81
  10  -6  -2  576.23   25.51
 -10   6   2  649.81   26.41
 -10  -6   2  649.83   30.97
 -10  -6   1   11.61    3.72
  10  -6  -1   11.94    2.87
  10   6  -1   13.46    3.07
 -10   6   1   14.80    3.11
  10   6  -1   12.64    3.05
  10   6  -1   15.35    3.48
 -10   6   1   13.81    3.01
 -10  -6   0  491.66   25.55
  10   6   0  502.60   21.97
 -10   6   0  475.17   21.23
  10   6   0  501.11   24.53
  10   6   0  519.23   23.62
 -10   6   0  548.68   22.96
 -10  -6  -1 1205.82   46.89
 -10  -6  -1 1165.42   39.09
  10   6   1 1256.64   46.22
  10   6   1 1239.31   43.58
 -10   6  -1 1314.02   43.40
  10   6   2    1.89    1.73
 -10  -6  -2    1.78    1.15
 -10   6  -2    3.22    1.86
  10  -6   2    0.89    1.09
 -10   6  -3 1055.25   37.36
  10   6   3 1068.36   40.13
  11  -1 -14 1429.26   49.76
  11   1 -14 1529.08   54.62
  11  -1 -14 1530.85   53.80
 -11  -1  14 1445.60   52.81
 -11   1  14 1456.39   62.52
 -11   1  14 1506.79   53.49
  11   1 -13   23.47    4.34
  11  -1 -13   20.64    4.14
 -11   1  13   19.23    4.72
  11   1 -13   18.52    3.38
 -11   1  13   20.45    3.59
 -11  -1  13   21.71    6.54
  11  -1 -12 1038.23   41.16
  11   1 -12 1002.93   40.18
 -11   1  12  977.97   43.79
 -11   1  12  981.32   37.78
 -11  -1  12 1095.77   55.35
 -11   1  11   23.54    6.26
  11  -1 -11   20.22    4.89
 -11  -1  11   35.51   10.01
  11   1 -11   25.51    5.13
  11   1 -11   29.92    5.96
  11  -1 -11   17.19    4.74
  11   1 -11   24.52    5.35
  11   1 -10  227.34   17.82
  11  -1 -10  203.36   17.11
  11   1 -10  212.44   16.87
  11   1 -10  199.06   15.64
 -11   1  10  238.47   20.94
 -11  -1  10  250.45   21.18
 -11  -1  10  237.83   27.00
  11   1 -10  218.95   17.02
  11   1  -9   44.45    7.10
  11   1  -9   57.44    8.71
  11   1  -9   46.79    8.16
  11  -1  -9   50.91    8.29
  11   1  -9   48.75    8.12
  11   1  -9   47.11    7.86
 -11   1   9   54.81   10.36
 -11  -1   9   44.55    9.30
 -11   1   9   45.79   12.76
 -11  -1   9   50.87   13.48
 -11  -1   9   54.97   13.96
  11  -1  -9   52.71   11.86
  11   1  -9   65.91   15.16
  11  -1  -9   42.92    8.46
  11   1  -8 2651.09   98.94
  11  -1  -8 2956.66  100.22
  11  -1  -8 2871.95  116.03
  11   1  -8 2425.56  100.39
 -11  -1   8 3008.35  108.45
 -11   1   8 2925.34  126.72
 -11  -1   8 3501.88  134.20
  11   1  -8 2898.39   99.23
  11  -1  -8 2902.63  102.59
 -11  -1   8 3034.97  126.79
  11  -1  -8 2927.05  117.15
  11   1  -8 3350.74  132.92
  11   1  -8 2443.22   94.09
 -11  -1   7  421.57   42.17
 -11   1   7  355.87   38.42
  11  -1  -7  347.03   25.31
  11   1  -7  339.39   23.22
  11  -1  -7  378.55   24.46
  11   1  -7  411.30   40.11
  11  -1  -7  269.29   28.00
  11   1  -7  388.09   32.57
  11   1  -7  307.30   25.45
 -11  -1   7  365.95   28.52
 -11   1   7  336.15   36.15
 -11  -1   7  452.15   41.60
  11  -1  -7  362.88   26.50
  11  -1  -7  315.21   30.35
 -11  -1   7  321.38   34.61
 -11  -1   6 1258.98   59.01
 -11  -1   6 1814.93   95.47
 -11   1   6 1639.25   90.24
  11  -1  -6 1366.69   60.74
  11   1  -6 1465.52   58.94
  11   1  -6 1250.69   58.12
  11  -1  -6 1451.22   59.00
 -11  -1   6 1332.63   69.09
  11  -1  -6 1312.15   69.58
  11   1  -6 1399.63   64.99
 -11   1   6 1433.44   67.40
 -11  -1   6 1331.53   65.40
 -11   1   6 1734.28   89.60
 -11  -1   6 1802.38   90.52
  11   1  -6 1722.58   68.26
  11  -1  -6 1455.67   63.32
  11  -1  -6 1252.68   69.60
 -11  -1   6 1421.77   80.32
 -11  -1   5   51.05   15.65
 -11   1   5   53.10   16.11
 -11  -1   5   33.76    7.67
  11   1  -5   35.57    7.18
  11   1  -5   38.99    8.02
  11  -1  -5   33.44    6.79
 -11  -1   5   36.52    9.53
  11   1  -5   43.55    9.53
  11  -1  -5   35.86   10.04
  11  -1  -5   41.11   10.68
 -11   1   5   46.56   10.32
 -11  -1   5   39.64    9.44
 -11   1   5   52.89   14.70
 -11  -1   5   58.21   14.93
  11   1  -5   54.66   10.39
 -11   1   5   35.44   12.55
 -11  -1   5   55.40   14.65
  11  -1  -5   49.07    9.22
 -11  -1   5   53.60   14.65
 -11  -1   4  858.81   45.91
 -11  -1   4 1262.16   75.30
 -11   1   4 1132.44   71.45
  11   1  -4 1013.58   44.51
 -11  -1   4  868.22   50.95
  11   1  -4  973.17   46.15
  11  -1  -4  968.63   43.57
 -11  -1   4  810.15   50.22
  11   1  -4  986.35   52.40
  11  -1  -4  768.64   52.17
 -11   1   4  929.85   51.63
 -11   1   4 1182.34   68.70
 -11  -1   4 1216.81   68.25
 -11  -1   4 1018.20   63.75
 -11   1   4  960.34   61.86
 -11  -1   4 1154.61   65.52
  11  -1  -4  976.59   48.12
 -11  -1   3   51.62   11.17
  11   1  -3   54.46    8.30
 -11  -1   3   60.52   11.48
  11   1  -3   57.78    9.29
  11  -1  -3   56.86    8.19
 -11  -1   3   43.16   10.04
 -11  -1   3   45.99   14.00
 -11   1   3   71.70   17.31
 -11  -1   3   58.74   10.13
 -11   1   3   66.33   15.01
 -11   1   3   55.92   10.99
 -11  -1   3   73.42   15.17
  11   1  -3   52.19   14.55
 -11  -1   3   66.70   15.32
 -11   1   3   73.27   16.02
 -11  -1   3   61.26   13.95
  11  -1  -3   61.67   10.23
 -11  -1   2 2847.58  112.04
 -11  -1   2 3411.30  133.46
 -11   1   2 3186.90  133.06
 -11  -1   2 2853.27  106.43
  11   1  -2 3115.25  100.54
 -11   1   2 2978.05  111.75
 -11  -1   2 2908.38  111.76
 -11  -1   2 2343.65  106.72
 -11   1   2 3044.32  112.26
 -11   1   2 3238.92  127.23
  11   1  -2 2466.43  109.30
  11   1  -2 2869.64  131.71
 -11  -1   2 2788.71  122.55
  11  -1  -2 2895.95  105.08
 -11   1   2 3132.73  125.31
 -11  -1   2 3402.17  124.94
 -11  -1   1   50.60   13.26
 -11   1   1   60.99   15.27
 -11  -1   1   46.56    9.11
  11  -1  -1   48.19    8.68
 -11   1   1   60.76   13.69
 -11  -1   1   40.03   10.87
 -11   1   1   37.53    8.68
 -11  -1   1   39.44    9.38
 -11   1   1   45.49    9.72
  11   1  -1   41.13    9.74
  11   1  -1   41.98    9.81
  11   1  -1   49.92   15.57
 -11   1   1   35.78    8.80
 -11  -1   1   36.28    9.06
 -11  -1   1   51.42   11.58
 -11   1   0  866.23   43.90
 -11  -1   0  839.09   45.88
  11   1   0  846.09   48.07
  11  -1   0  808.76   39.79
 -11   1   0  981.06   60.96
 -11  -1   0  985.19   57.62
 -11   1   0  848.38   53.24
 -11  -1   0  906.77   51.62
  11   1   0  683.56   43.57
  11   1   0  784.52   58.91
 -11   1   0  745.43   37.71
 -11  -1   0  752.91   44.28
 -11   1   0  670.60   46.00
 -11  -1   0  888.93   49.38
 -11  -1  -1   14.99    5.23
 -11   1  -1    9.69    7.21
 -11  -1  -1   13.51    7.01
  11   1   1   17.90    4.92
 -11  -1  -1   10.53    5.12
  11   1   1   15.98    6.35
  11   1   1   13.17    5.46
  11  -1   1   12.08    5.66
  11   1   1   14.36    8.30
 -11   1  -1   13.05    6.19
 -11  -1  -1   24.25    7.76
 -11   1  -1   21.11    5.21
 -11   1  -1   18.90    6.54
 -11  -1  -1   11.46    5.23
 -11  -1  -2  941.81   46.35
 -11  -1  -2  927.03   48.56
 -11   1  -2 1127.81   65.29
 -11  -1  -2 1097.59   60.19
  11   1   2  989.26   41.67
 -11  -1  -2 1102.21   67.01
 -11   1  -2 1015.87   65.41
  11   1   2 1033.07   53.26
  11   1   2  931.22   61.10
  11  -1   2  781.95   49.78
 -11  -1  -2  882.15   48.81
 -11   1  -2  987.95   43.12
 -11   1  -2  865.61   48.38
 -11   1  -2  899.09   52.19
 -11  -1  -2 1046.86   53.05
 -11   1  -3  209.64   22.27
 -11  -1  -3  210.76   21.24
  11   1   3  166.31   23.57
  11  -1   3  183.99   20.37
 -11   1  -3  197.66   25.75
 -11  -1  -3  249.76   26.29
 -11   1  -3  188.03   24.87
 -11  -1  -3  225.52   25.06
 -11  -1  -3  205.25   26.85
 -11   1  -3  238.13   29.37
  11   1   3  242.38   22.47
 -11  -1  -3  176.76   19.12
 -11   1  -3  174.68   18.88
 -11  -1  -3  180.48   17.00
 -11  -1  -3  192.44   19.12
 -11  -1  -4 3876.25  132.21
 -11   1  -4 2992.82  114.78
  11   1   4 3909.81  146.41
 -11  -1  -4 4169.12  153.20
 -11   1  -4 3779.93  151.54
 -11   1  -4 4040.13  150.03
 -11  -1  -4 3787.74  140.16
 -11   1  -4 3911.10  149.04
 -11  -1  -4 3825.53  140.16
  11   1   4 3974.45  131.65
 -11  -1  -4 3612.99  129.31
 -11   1  -4 3340.26  126.51
 -11  -1  -4 3451.79  120.76
 -11  -1  -4 3452.81  125.04
 -11   1  -5   24.94    5.37
 -11   1  -5   16.40    6.43
 -11  -1  -5   42.96   12.16
 -11   1  -5   29.45   10.98
 -11   1  -5   28.49   10.69
 -11  -1  -5   44.91   11.28
 -11   1  -5   35.30   10.92
 -11  -1  -5   31.26    9.18
  11   1   5   27.52    8.73
  11   1   5   44.98    8.87
 -11   1  -5   32.56    7.96
 -11  -1  -5   31.40    7.30
 -11  -1  -5   32.34    6.43
 -11   1  -6   48.77   13.24
 -11  -1  -6   46.95   11.34
  11   1   6   53.08   10.63
 -11  -1  -6   47.29   13.15
 -11   1  -6   58.18   14.90
 -11   1  -6   56.71    7.92
 -11   1  -6   48.92   10.41
 -11  -1  -6   46.00    7.20
 -11  -1  -6   46.58    8.43
 -11   1  -6   63.40   10.36
 -11  -1  -7   28.56   10.18
 -11   1  -7   19.93    9.13
 -11   1  -7   16.18    4.00
 -11   1  -7   25.82    6.68
 -11   1  -7   13.15    5.41
 -11   1  -7   16.56    6.76
 -11  -1  -7   24.86    4.56
 -11  -1  -7   36.24    6.77
 -11   1  -7   16.53    5.11
 -11  -1  -7   16.32    5.37
 -11  -1  -8 1903.38   84.98
 -11   1  -8 1850.81   86.00
 -11   1  -8 1641.02   69.57
 -11   1  -8 1740.64   65.97
 -11  -1  -8 1467.54   60.14
 -11  -1  -8 1650.17   67.07
 -11   1  -8 1640.10   64.09
 -11  -1  -9   12.81    6.33
 -11   1  -9   22.07    8.48
 -11   1  -9    9.03    3.58
 -11  -1  -9   12.44    4.43
 -11   1  -9   14.94    5.19
 -11   1  -9    0.35    0.56
 -11  -1 -10 2870.17   77.02
 -11   1 -10 2727.25   76.14
 -11  -1 -10 2522.77   51.48
 -11   1 -10 2490.68   55.22
 -11  -1 -11   77.97   12.10
 -11   1 -11   69.50   11.29
 -11  -1 -11   68.26    7.94
 -11   1 -11   70.92    8.82
 -11  -1 -12    5.92    3.69
 -11   1 -12   13.56    4.66
 -11   1 -12   10.48    3.08
 -11  -1 -12    9.62    2.65
 -11   3  12  603.28   28.12
  11   3 -12  560.94   24.14
  11  -3 -12  527.85   23.05
  11  -3 -11  388.62   17.17
 -11  -3  11  483.56   20.08
  11   3 -11  384.17   16.58
  11  -3 -11  398.59   17.99
 -11  -3  11  481.14   28.01
  11   3 -11    3.60    1.53
 -11   3  11    1.07    0.98
  11   3 -11    0.90    0.72
 -11   3  11  391.26   15.08
 -11   3  10  248.57   13.73
  11  -3 -10  241.74   15.41
 -11  -3  10  263.92   16.75
  11   3 -10  226.11   13.76
  11  -3 -10  233.39   15.03
  11   3 -10    8.40    2.48
 -11  -3  10  244.29   22.11
  11   3 -10  210.95   13.62
 -11   3  10  228.56   17.39
 -11   3  10  214.45   16.14
 -11   3  10    0.48    0.78
 -11   3   9  119.97   11.08
  11  -3  -9  127.28   12.99
 -11  -3   9  128.15   13.10
  11  -3  -9  128.26   12.51
  11  -3  -9  136.34   12.13
 -11  -3   9  146.32   18.81
  11   3  -9  129.44   12.14
 -11   3   9  123.52   14.13
 -11   3   9  122.78   13.68
 -11  -3   9  130.58   13.17
 -11   3   9   95.77   12.67
 -11   3   9  128.69   14.21
 -11  -3   8 1511.84   62.62
 -11   3   8 1387.09   64.63
  11   3  -8 1384.85   57.73
 -11  -3   8 1601.63   67.16
  11  -3  -8 1548.26   62.55
 -11  -3   8 1597.08   63.25
  11  -3  -8 1721.38   63.02
  11  -3  -8 1728.45   60.94
  11   3  -8 1455.43   58.98
  11   3  -8 1478.89   59.97
 -11   3   8 1621.22   67.10
 -11   3   8 1448.43   63.59
 -11   3   8 1710.34   60.29
 -11  -3   7   77.92   11.08
 -11   3   7   79.89   12.27
 -11  -3   7   93.86   10.04
 -11   3   7   73.33   11.58
  11   3  -7   72.66    9.75
 -11  -3   7   77.38   12.52
  11   3  -7   93.21    9.89
  11   3  -7   89.03   10.51
 -11  -3   7   78.45   11.06
  11  -3  -7   96.99   11.60
  11   3  -7   76.41   10.01
 -11  -3   7   98.09   16.38
  11  -3  -7   80.28    9.97
  11   3  -7   80.45   10.51
 -11   3   7   78.17   12.08
 -11   3   7   57.82   10.04
 -11  -3   7   82.32    9.98
 -11   3   7   88.01   10.41
  11   3  -6  766.40   39.68
 -11  -3   6  847.47   47.16
  11   3  -6  932.03   38.39
 -11   3   6  766.70   42.32
 -11  -3   6  790.35   38.74
 -11  -3   6  891.76   43.60
  11   3  -6  880.82   40.68
  11  -3  -6  927.48   42.49
  11   3  -6  787.70   40.06
 -11  -3   6 1080.50   58.98
  11  -3  -6  880.70   40.17
 -11   3   6  914.96   46.36
 -11   3   6  905.59   40.98
 -11  -3   6  816.82   42.31
 -11   3   6  700.73   42.97
 -11   3   6  920.11   46.76
 -11  -3   6  883.56   39.77
 -11   3   5  928.99   42.12
  11   3  -5  815.73   44.26
  11  -3  -5  728.84   47.77
 -11  -3   5  857.61   48.64
  11   3  -5  779.87   41.08
  11   3  -5  967.66   38.94
 -11  -3   5  901.23   44.42
  11  -3  -5  927.49   43.04
  11   3  -5  975.59   42.62
  11   3  -5  827.11   41.96
 -11  -3   5 1033.27   58.66
  11  -3  -5  910.02   41.30
 -11   3   5  915.83   46.34
 -11  -3   5  820.40   39.81
  11  -3  -5  896.54   44.51
 -11   3   5  780.46   43.03
 -11  -3   5  824.28   43.05
 -11   3   5  755.50   44.42
 -11  -3   5  977.96   43.63
 -11   3   5  941.26   47.81
  11   3  -4  444.28   30.74
  11  -3  -4  406.88   33.38
 -11  -3   4  410.25   32.39
  11   3  -4  428.29   28.01
  11   3  -4  461.21   23.77
 -11   3   4  384.63   27.90
 -11  -3   4  429.77   26.17
  11  -3  -4  447.90   29.06
 -11  -3   4  424.85   28.57
  11   3  -4  508.02   28.05
  11  -3  -4  459.07   27.79
 -11  -3   4  539.73   40.94
  11  -3  -4  459.66   26.69
 -11   3   4  473.00   30.63
 -11  -3   4  388.45   27.36
 -11  -3   4  496.14   29.86
 -11   3   4  480.69   31.88
  11   3  -4  409.78   35.61
  11   3  -4  474.78   29.34
 -11  -3   3   58.32   11.96
 -11   3   3   92.73   13.69
 -11   3   3   62.91   10.39
  11  -3  -3   85.92   11.85
 -11  -3   3   70.39    9.73
  11  -3  -3   84.18   11.52
 -11  -3   3   81.72   11.68
  11   3  -3   83.51   10.49
 -11  -3   3   88.23   16.05
  11   3  -3   85.10   11.70
  11  -3  -3   78.23   10.00
  11   3  -3   77.26   12.52
  11  -3  -3   71.20   13.43
 -11   3   3   88.62   12.10
 -11  -3   3   75.15   11.21
 -11   3   3   87.70   12.73
  11   3  -3   82.98   15.48
  11   3  -3   79.85   11.40
  11   3  -2 2116.56   96.59
  11   3  -2 2026.86  100.03
  11   3  -2 2377.44   85.28
 -11   3   2 2241.57   83.47
  11   3  -2 2214.84   89.42
  11  -3  -2 1638.04   87.15
 -11   3   2 2134.14   88.06
  11  -3  -2 2351.80   84.58
  11  -3  -2 2127.44   82.38
 -11  -3   2 2106.66   83.52
  11   3  -2 2306.54   80.10
  11   3  -2 2264.91   84.57
 -11  -3   2 2351.30  101.21
  11  -3  -2 2094.07   78.33
 -11  -3   2 1916.58   89.70
 -11   3   2 2101.89   80.04
 -11  -3   2 2740.02   89.08
 -11  -3   2 2307.11   85.34
  11  -3  -1   40.21   10.09
 -11   3   1   49.78    9.87
  11  -3  -1   57.67    9.10
  11   3  -1   58.33    8.20
  11   3  -1   56.05    9.34
 -11  -3   1   54.57   12.73
 -11  -3   1   37.32    9.74
 -11   3   1   32.77    6.83
 -11   3   1   44.49    7.97
 -11  -3   1   72.99   10.81
  11   3  -1   40.10   10.47
  11   3  -1   54.86   13.55
  11   3  -1   48.37    8.51
 -11  -3   1   51.03    9.24
  11   3   0  460.83   32.25
  11  -3   0  349.55   30.59
 -11  -3   0  433.57   33.74
 -11   3   0  379.47   28.91
  11  -3   0  414.19   25.89
  11   3   0  389.74   32.23
 -11  -3   0  404.81   26.90
  11   3   0  463.03   24.30
  11   3   0  418.97   27.27
 -11   3   0  428.58   25.83
 -11   3   0  427.31   26.38
 -11  -3   0  487.60   28.96
  11   3   0  401.86   33.21
  11   3   0  442.70   27.24
  11   3   0  419.45   37.72
 -11  -3   0  446.65   29.44
  11   3   1  639.07   35.10
 -11  -3  -1  550.37   39.45
 -11  -3  -1  661.35   37.10
  11   3   1  566.21   39.67
 -11   3  -1  523.26   35.05
 -11  -3  -1  565.14   33.25
  11   3   1  650.50   34.21
 -11  -3  -1  653.77   35.01
 -11   3  -1  616.29   32.04
 -11   3  -1  639.89   33.27
  11   3   1  621.17   46.69
  11   3   1  584.54   40.28
  11   3   1  633.31   32.95
 -11   3  -1  696.85   35.48
  11  -3   1  504.76   36.50
 -11  -3  -2  685.99   45.95
  11   3   2  809.51   40.79
 -11  -3  -2  895.61   44.26
 -11   3  -2  700.44   42.36
 -11  -3  -2  793.98   40.94
  11   3   2  891.68   40.33
 -11  -3  -2  902.23   42.74
 -11   3  -2  849.16   39.27
  11   3   2  821.58   54.16
  11   3   2  750.97   46.40
  11   3   2  887.02   39.01
 -11   3  -2  899.83   42.26
  11  -3   2  645.49   42.83
 -11  -3  -3   19.45    5.74
 -11   3  -3   12.39    5.48
 -11  -3  -3   28.37    6.97
  11   3   3   14.78    6.27
  11   3   3   11.90    4.07
 -11   3  -3   25.93    6.60
  11   3   3   17.29    5.87
  11   3   3   27.81    8.67
  11   3   3   16.56    4.29
 -11  -3  -3   15.49    5.45
  11   3   3   14.31    4.66
 -11   3  -4 1239.41   61.56
 -11  -3  -4 1313.88   59.01
 -11  -3  -4 1579.42   62.48
  11   3   4 1497.49   57.99
  11   3   4 1409.97   54.52
 -11   3  -4 1592.71   62.33
 -11  -3  -5  229.93   19.44
 -11  -3  -5  240.72   17.78
 -11   3  -5  238.95   20.60
 -11   3  -5  243.50   19.63
 -11   3  -5  212.34   19.05
  11   3   5  217.83   16.28
  11   3   6   86.45   11.91
 -11  -3  -6   96.47   10.81
 -11   3  -6   98.16   12.08
 -11   3  -6  102.04   13.00
 -11   3  -6   97.77   12.56
 -11  -3  -6  102.53   12.45
 -11  -3  -6   94.47   11.43
 -11  -3  -6   92.28   10.25
  11   3   7  517.79   29.22
 -11   3  -7  480.46   29.09
 -11   3  -7  520.67   29.25
 -11   3  -7  428.48   28.67
 -11  -3  -7  477.83   28.01
 -11  -3  -7  444.91   25.99
 -11  -3  -7  459.55   23.72
  11   3   8 1530.36   40.80
 -11   3  -8 1664.72   45.28
 -11   3  -8 1557.19   42.83
 -11   3  -8 1353.95   43.61
 -11  -3  -8 1550.52   42.03
 -11  -3  -8 1415.35   36.28
  11   3   9    2.45    2.33
 -11   3  -9    9.72    3.46
 -11  -3  -9    1.51    1.52
 -11   3  -9    4.85    3.44
 -11  -3  -9    3.70    2.17
 -11  -3  -9    8.84    3.41
 -11  -3 -10 1161.95   41.70
 -11   3 -10 1108.38   46.70
 -11  -3 -10 1225.58   44.22
  11   3  10 1073.93   44.90
 -11  -3 -10 1077.35   39.79
  11  -5  -8  892.76   32.97
 -11  -5   8  906.23   36.98
 -11   5   8  992.03   33.88
  11   5  -8  845.22   32.80
  11  -5  -8  886.52   33.19
 -11   5   8  959.69   36.01
  11   5  -7  127.34    9.45
  11  -5  -7  130.78    9.56
 -11  -5   7  142.66   11.90
 -11   5   7  161.66   10.63
  11   5  -7  143.53    9.97
  11  -5  -7  143.56   10.17
 -11   5   7  158.64   11.64
  11   5  -6  224.35   14.03
  11  -5  -6  237.47   14.07
  11   5  -6  210.85   13.71
 -11  -5   6  199.16   15.85
 -11   5   6  274.78   15.10
  11   5  -6  238.75   13.90
  11  -5  -6  254.68   14.65
 -11   5   6  270.55   16.30
  11   5  -5  924.08   39.30
  11  -5  -5 1037.04   39.53
  11   5  -5  924.29   39.45
 -11  -5   5 1050.41   45.31
  11  -5  -5 1044.92   39.70
  11   5  -5 1077.52   39.28
 -11  -5   5 1026.52   36.07
 -11   5   5 1094.07   41.76
 -11   5   5 1144.94   40.28
  11  -5  -4  182.35   11.67
 -11  -5   4  171.44   14.89
  11   5  -4  181.53   12.62
  11  -5  -4  165.81   11.17
  11   5  -4  178.05   10.84
 -11   5   4  184.75   11.43
 -11  -5   4  178.59   10.08
 -11   5   4  168.42   11.74
  11   5  -3  305.69   16.23
  11   5  -3  290.25   17.97
  11  -5  -3  273.50   16.55
  11   5  -3  286.68   18.47
 -11  -5   3  296.68   21.93
  11   5  -3  274.28   18.44
 -11   5   3  298.86   17.46
 -11   5   3  302.59   16.75
 -11  -5   3  321.04   16.78
 -11   5   2 1242.68   29.38
 -11  -5   2 1446.71   32.86
  11   5  -2 1273.49   33.74
  11  -5  -2 1179.07   29.63
 -11  -5   2 1348.23   44.14
  11   5  -2 1247.99   36.95
 -11   5   2 1284.85   31.85
 -11   5   2 1460.28   32.84
 -11   5   1  231.49   14.38
  11   5  -1  277.79   17.22
  11  -5  -1  227.10   14.64
  11   5  -1  278.76   17.95
 -11  -5   1  253.18   20.72
  11   5  -1  268.97   19.20
 -11   5   1  269.50   16.26
 -11   5   1  290.93   17.02
 -11   5   1  316.05   17.52
 -11  -5   0  174.56   15.23
 -11   5   0  151.82   11.00
 -11  -5   0  178.63   12.15
  11   5   0  179.80   13.12
  11  -5   0  140.84   10.92
  11   5   0  173.51   13.81
 -11  -5   0  164.92   16.66
  11   5   0  182.84   15.61
 -11   5   0  166.19   12.32
 -11   5   0  200.22   13.96
 -11   5   0  185.47   13.43
 -11  -5  -1  702.08   29.27
  11   5   1  677.81   29.54
  11  -5   1  562.78   26.77
 -11  -5  -1  692.81   37.29
  11   5   1  727.14   31.84
  11   5   1  711.11   34.93
 -11  -5  -1  636.31   33.52
 -11   5  -1  796.44   32.50
 -11   5  -1  757.57   31.76
 -11  -5  -2  165.11   11.82
  11   5   2  164.12   11.33
  11   5   2  168.84   12.67
 -11  -5  -2  180.10   16.70
 -11  -5  -2  155.16   14.26
  11   5   2  193.97   15.83
 -11   5  -2  197.25   13.83
 -11   5  -2  176.16   13.24
  11   5   3  220.28   13.99
 -11   5  -3  227.96   15.06
 -11   5  -3  229.10   15.26
 -11  -5  -3  213.80   13.62
  11   5   4  869.12   34.15
  11   5   4  992.66   40.65
 -11   5  -4 1005.39   38.53
  11   5   4  826.63   38.55
 -11   5  -4 1008.27   38.04
 -11  -5  -4  916.52   35.54
 -11  -5  -5  798.54   31.00
  11   5   5  700.31   32.63
  11   5   5  853.01   34.91
  11   5   5  747.13   34.01
 -11   5  -5  912.02   34.61
 -11   5  -5  840.83   32.95
 -11  -5  -5  775.07   28.77
 -12   0  13   -0.61    2.57
  12   0 -13    3.19    1.65
 -12   0  13    3.56    1.47
 -12   0  12   23.32    4.98
 -12   0  12   14.66    6.62
  12   0 -12   18.91    3.70
 -12   0  11    1.33    1.87
  12   0 -11    1.79    1.16
  12   0 -11    0.33    1.39
 -12   0  11    2.78    4.15
  12   0 -10 1207.22   49.14
 -12   0  10 1316.60   54.57
  12   0 -10 1100.62   45.86
  12   0 -10 1165.49   48.08
  12   0 -10 1327.63   49.99
 -12   0   9    4.05    3.67
  12   0  -9    0.43    2.06
  12   0  -9    2.07    2.07
 -12   0   9    2.40    5.39
 -12   0   8  840.06   44.32
  12   0  -8  761.56   38.64
  12   0  -8  873.95   39.53
  12   0  -7    5.02    3.07
 -12   0   7    3.78    5.66
 -12   0   7    1.39    6.64
  12   0  -7    5.45    4.89
  12   0  -7    5.52    3.58
 -12   0   7    1.46    1.64
  12   0  -7   -0.57    2.23
 -12   0   7    1.18    5.63
  12   0  -6  189.28   17.77
 -12   0   6  173.53   23.85
 -12   0   6  177.30   24.62
 -12   0   6  194.43   27.69
  12   0  -6  174.62   21.51
  12   0  -6  145.26   21.44
 -12   0   6  130.80   16.72
  12   0  -6  189.83   16.07
  12   0  -5    6.51    3.62
 -12   0   5    2.35    4.57
 -12   0   5    2.16    3.03
 -12   0   5    4.07    6.47
  12   0  -5    6.75    5.30
 -12   0   5   12.31    4.74
  12   0  -5    7.04    4.06
 -12   0   5    3.35    6.14
  12   0  -4 4223.23  140.46
 -12   0   4 3978.56  149.39
 -12   0   4 4977.80  171.50
 -12   0   4 4870.18  177.15
  12   0  -4 4301.31  145.64
 -12   0   4 4865.25  168.76
 -12   0   4 3933.38  150.65
 -12   0   3    8.62    6.40
 -12   0   3    3.82    5.72
 -12   0   3    1.04    4.06
  12   0  -3    2.86    2.72
 -12   0   3    1.52    3.61
  12   0  -3    5.31    2.90
 -12   0   2  828.85   45.79
 -12   0   2  876.38   57.90
 -12   0   2  767.95   40.79
  12   0  -2  812.79   37.39
  12   0  -2  821.96   41.19
 -12   0   2  926.41   54.63
 -12   0   1    8.38    4.30
 -12   0   1    2.26    3.77
  12   0  -1    6.32    3.24
 -12   0   1    1.21    5.09
 -12   0   1    2.00    4.77
  12   0  -1    5.87    2.92
 -12   0   0  598.56   34.75
 -12   0   0  711.39   39.59
  12   0   0  623.96   39.31
 -12   0   0  808.15   53.44
 -12   0   0  711.35   46.41
  12   0   0  578.02   44.03
 -12   0   0  596.78   38.62
 -12   0   0  689.24   43.93
 -12   0  -1    2.15    2.70
 -12   0  -1    3.12    3.43
  12   0   1    2.93    3.49
 -12   0  -1    2.30    4.83
  12   0   1    1.03    4.33
 -12   0  -1    8.62    2.92
 -12   0  -1    5.06    3.97
 -12   0  -1    7.64    5.39
 -12   0  -2 5049.94  167.86
  12   0   2 4343.00  169.25
  12   0   2 4776.15  162.31
 -12   0  -2 4277.38  158.66
 -12   0  -2 4513.52  152.56
 -12   0  -3    1.09    4.59
 -12   0  -3    6.70    5.01
 -12   0  -3   -2.50    6.58
  12   0   3    0.69    2.19
  12   0   3    0.95    3.01
 -12   0  -3    1.59    3.58
 -12   0  -3    5.11    3.13
 -12   0  -4  812.97   55.64
 -12   0  -4  713.77   41.10
  12   0   4  713.42   45.23
 -12   0  -4  778.55   51.72
 -12   0  -4  839.17   53.24
 -12   0  -4  773.07   45.04
 -12   0  -5    5.91    5.31
 -12   0  -5    2.13    4.77
 -12   0  -5    4.40    4.20
 -12   0  -5    3.10    3.69
 -12   0  -6 1036.52   61.94
 -12   0  -6 1078.12   60.78
 -12   0  -6 1014.16   51.12
 -12   0  -6  910.14   46.17
 -12   0  -7   -0.51    2.80
 -12   0  -7    2.53    3.89
 -12   0  -7   -1.04    5.22
 -12   0  -8 4075.06  138.10
 -12   0  -8 4358.43  144.62
 -12   0  -9    4.29    2.54
 -12   0  -9   -0.49    2.79
 -12   0  -9    4.03    4.62
 -12   0 -10 1374.32   58.84
 -12   0 -10 1105.44   43.32
 -12   0 -11    6.23    4.12
 -12   2  12   35.82    4.22
  12  -2 -12   24.90    4.03
 -12  -2  12   33.86    5.05
  12   2 -12   35.58    4.42
 -12  -2  12   47.37    7.95
 -12   2  12   38.18    5.88
 -12   2  12   31.74    6.10
 -12  -2  12   37.27    5.30
 -12   2  12   29.97    6.15
 -12  -2  12   32.36    5.79
 -12   2  11  181.02   10.59
  12   2 -11  175.20   10.68
  12  -2 -11  183.65   11.98
 -12  -2  11  191.35   13.11
 -12  -2  11  228.83   19.64
  12   2 -11  143.41    9.70
 -12   2  11  193.22   14.35
 -12  -2  11  193.23   15.59
 -12   2  11  164.06   15.97
 -12   2  11  191.79   16.17
 -12  -2  11  173.84   13.07
 -12   2  10  863.15   30.63
  12  -2 -10  761.09   31.50
  12   2 -10  779.92   29.38
 -12  -2  10  801.00   33.81
  12   2 -10  810.29   31.30
  12  -2 -10  681.25   29.34
 -12  -2  10  957.03   47.36
  12   2 -10  765.79   30.43
 -12  -2  10  887.72   40.78
 -12   2  10  772.25   40.94
 -12   2  10  839.35   40.38
 -12  -2  10  853.79   36.35
  12   2  -9    3.12    1.57
 -12   2   9    2.71    3.73
 -12  -2   9    4.87    3.54
  12  -2  -9    5.33    2.65
 -12  -2   9    5.13    2.87
  12   2  -9    4.07    2.28
 -12  -2   9    5.78    3.53
  12   2  -9    1.36    1.95
 -12  -2   9    7.18    4.93
  12   2  -9    2.98    1.96
 -12   2   9    7.48    3.89
 -12  -2   9    5.50    4.50
 -12   2   9    2.31    3.24
 -12   2   9    5.09    2.64
 -12   2   8  961.27   54.15
 -12  -2   8 1156.13   56.29
  12   2  -8  855.12   40.90
  12   2  -8 1069.32   42.15
  12  -2  -8  993.50   44.77
 -12  -2   8 1041.96   47.52
  12  -2  -8 1108.45   44.18
  12   2  -8  900.78   41.99
 -12  -2   8 1120.92   54.28
 -12   2   8 1129.48   44.42
 -12   2   8 1123.93   50.84
 -12   2   8 1052.22   53.46
 -12  -2   8 1115.87   50.83
 -12  -2   8 1245.76   63.53
  12   2  -8  938.27   43.21
 -12  -2   7  351.13   28.65
 -12   2   7  262.97   26.23
  12   2  -7  337.91   19.84
  12  -2  -7  312.47   21.83
 -12  -2   7  308.55   23.30
  12   2  -7  290.39   20.11
  12  -2  -7  303.15   19.98
  12   2  -7  269.75   19.65
 -12  -2   7  313.70   26.82
 -12   2   7  311.87   20.64
 -12   2   7  314.56   24.37
 -12   2   7  284.67   25.36
 -12  -2   7  336.29   25.34
 -12  -2   7  334.25   31.52
  12   2  -7  305.86   21.28
 -12  -2   6  407.40   32.01
 -12   2   6  333.88   29.89
 -12  -2   6  414.75   25.25
  12   2  -6  408.39   22.34
 -12   2   6  354.94   28.76
 -12  -2   6  379.29   27.73
 -12  -2   6  342.92   25.61
  12   2  -6  394.04   23.95
  12  -2  -6  374.44   22.81
  12   2  -6  306.67   22.32
 -12  -2   6  395.09   30.75
 -12   2   6  396.22   28.17
 -12  -2   6  421.35   36.16
 -12   2   6  394.24   23.92
 -12  -2   5  260.48   25.43
 -12   2   5  243.49   25.08
 -12  -2   5  266.60   20.51
  12   2  -5  278.41   17.84
  12   2  -5  303.18   20.54
  12  -2  -5  275.36   18.77
  12   2  -5  215.93   18.51
  12   2  -5  271.58   20.74
 -12  -2   5  270.50   25.27
  12   2  -5  280.72   23.09
  12  -2  -5  219.43   24.05
 -12   2   5  270.12   23.12
 -12   2   5  256.31   23.83
 -12  -2   5  279.53   23.85
 -12   2   5  251.06   23.85
 -12  -2   5  286.06   23.69
  12  -2  -5  267.44   20.93
 -12  -2   5  280.30   29.57
  12  -2  -5  212.94   20.78
 -12  -2   4 3047.02  121.50
 -12   2   4 2804.53  104.12
 -12  -2   4 2805.11  110.53
 -12   2   4 2489.26  108.79
 -12  -2   4 2872.51  100.29
  12   2  -4 2859.79   92.61
  12   2  -4 2933.63   98.00
  12  -2  -4 2539.17   93.22
 -12  -2   4 2651.40  107.93
  12   2  -4 2941.01  100.85
 -12   2   4 2693.00   96.31
  12   2  -4 2894.05  105.85
 -12  -2   4 2948.52  105.83
  12  -2  -4 2697.57   99.21
 -12   2   4 2574.49  105.87
  12   2  -3   10.64    5.16
  12  -2  -3    5.25    4.17
  12  -2  -3    4.74    3.02
 -12   2   3   11.37    6.21
 -12  -2   3   19.69    7.25
 -12   2   3    5.35    3.84
 -12  -2   3   14.59    5.67
  12  -2  -3    3.82    2.58
 -12  -2   3   10.57    4.63
  12   2  -3    9.06    3.79
 -12  -2   3    6.47    5.13
  12   2  -3   10.86    4.07
 -12  -2   3    9.44    4.79
 -12   2   3    7.28    3.32
 -12   2   3    7.54    4.46
 -12  -2   3    4.28    5.37
  12   2  -3   10.21    4.36
 -12  -2   3    4.94    4.33
 -12   2   3   11.51    5.97
 -12  -2   3    4.44    3.06
  12  -2  -2 1593.59   83.18
 -12   2   2 1931.00   73.66
 -12  -2   2 2298.80   84.12
 -12   2   2 2238.72   92.61
 -12  -2   2 2273.27   88.71
 -12   2   2 1906.13   83.50
 -12  -2   2 1916.11   80.39
  12  -2  -2 1979.70   75.91
  12   2  -2 2185.06   75.19
 -12  -2   2 1953.67   79.84
  12   2  -2 2073.58   78.02
  12   2  -2 2170.44   78.72
 -12  -2   2 1808.59   83.45
 -12   2   2 2131.06   80.81
 -12  -2   2 2084.85   79.27
  12   2  -2 1735.34   83.05
  12   2  -2 1836.33   94.60
 -12   2   1  534.72   28.87
 -12  -2   1  574.52   34.39
 -12   2   1  563.14   39.71
 -12  -2   1  581.08   37.39
  12   2  -1  546.74   28.50
 -12  -2   1  505.84   32.42
  12   2  -1  536.37   31.07
  12   2  -1  588.26   31.90
  12   2  -1  555.86   35.86
  12   2  -1  472.50   34.50
 -12  -2   1  510.24   31.65
 -12   2   1  533.26   27.77
 -12   2   0  776.61   37.23
 -12   2   0  804.28   37.43
 -12  -2   0  837.29   43.54
 -12   2   0  857.77   50.52
 -12  -2   0  868.70   46.94
  12   2   0  851.86   36.56
  12   2   0  864.30   41.01
  12   2   0  856.55   40.29
 -12   2   0  786.72   36.50
  12   2   0  661.00   41.84
  12   2   0  829.13   45.54
  12  -2   0  670.86   45.04
 -12  -2   0  811.38   43.07
 -12   2  -1  162.41   20.31
 -12  -2  -1  158.09   18.18
 -12   2  -1  155.08   19.70
 -12  -2  -1  164.87   18.35
 -12  -2  -1  148.93   15.46
 -12  -2  -1  168.92   17.50
  12   2   1  156.10   14.84
 -12  -2  -1  174.20   17.27
 -12   2  -1  131.10   12.70
  12   2   1  128.45   15.71
  12   2   1  156.59   14.50
  12   2   1  170.55   23.21
  12   2   1  164.65   18.06
  12  -2   1  135.26   18.00
 -12   2  -1  161.38   14.02
 -12  -2  -1  149.16   16.58
 -12   2  -2 3745.08  139.80
 -12  -2  -2 3735.19  132.82
  12   2   2 3403.34  135.16
 -12   2  -2 3714.23  138.78
 -12  -2  -2 3710.60  132.24
 -12  -2  -2 3740.18  125.83
  12   2   2 3675.17  122.69
 -12  -2  -2 4216.42  131.07
 -12   2  -2 3522.76  120.42
  12   2   2 3785.84  121.69
  12   2   2 3713.32  146.07
  12   2   2 3702.55  131.04
  12  -2   2 2956.77  130.02
 -12   2  -2 3671.68  120.51
 -12  -2  -2 4204.60  132.65
  12   2   3  168.82   14.49
 -12  -2  -3  198.88   18.70
 -12  -2  -3  156.33   15.11
 -12   2  -3  155.63   19.97
 -12  -2  -3  180.98   19.02
 -12   2  -3  156.93   18.73
 -12  -2  -3  181.13   17.45
 -12   2  -3  172.70   14.54
  12   2   4 1239.31   47.92
 -12   2  -4 1224.08   62.94
 -12  -2  -4 1165.25   56.78
 -12   2  -4 1167.93   58.25
 -12  -2  -4 1384.99   56.28
 -12   2  -4 1147.72   48.74
 -12  -2  -4 1166.01   49.89
 -12  -2  -4 1199.04   53.51
 -12  -2  -4 1207.49   55.62
 -12  -2  -5  235.48   20.10
 -12  -2  -5  226.61   20.63
 -12   2  -5  251.43   24.55
  12   2   5  220.55   15.89
 -12   2  -5  232.00   21.55
 -12  -2  -5  257.89   20.26
 -12   2  -5  206.27   16.20
 -12  -2  -5  206.96   15.85
 -12  -2  -5  221.84   18.30
 -12   2  -6 1279.85   58.12
 -12  -2  -6 1358.52   55.56
 -12   2  -6 1166.17   49.33
 -12  -2  -6 1163.32   47.36
 -12  -2  -6 1214.48   51.71
 -12  -2  -6 1363.67   56.34
 -12  -2  -7  131.03   13.00
 -12   2  -7  123.69   16.07
  12   2   7  119.15   12.24
 -12  -2  -7  117.78   10.94
 -12   2  -7  130.29   14.01
 -12  -2  -7  122.90   12.47
 -12   2  -7  115.72   10.40
 -12   2  -7  147.41   14.10
 -12  -2  -8 2449.39   87.66
 -12   2  -8 2533.42  100.40
 -12   2  -8 3105.81   95.36
 -12   2  -8 2641.16   94.75
 -12  -2  -8 2960.60   94.78
 -12   2  -9  237.35   16.85
 -12  -2  -9  263.40   17.37
 -12  -2 -10 1139.43   42.82
 -12  -2 -10 1073.65   41.68
 -12  -4   9    9.62    3.27
 -12  -4   9   12.29    3.72
 -12   4   9   19.41    3.68
 -12   4   9   14.74    3.02
  12  -4  -9   12.40    2.74
  12  -4  -9   11.87    2.72
  12   4  -9   11.98    2.57
  12   4  -8  612.93   25.88
  12  -4  -8  674.25   27.14
  12  -4  -8  663.96   25.78
 -12  -4   8  697.46   32.48
  12   4  -8  540.37   24.95
 -12   4   8  648.36   27.97
  12  -4  -8  623.28   27.40
 -12  -4   8  686.58   32.77
  12   4  -8  601.38   26.58
  12   4  -7  649.41   26.97
  12  -4  -7  640.80   27.49
  12  -4  -7  631.71   26.11
 -12  -4   7  715.04   34.65
  12   4  -7  555.95   26.38
  12   4  -7  544.95   26.00
 -12   4   7  622.69   28.15
 -12  -4   7  680.03   34.25
  12   4  -7  631.21   28.08
  12  -4  -7  657.49   29.14
  12   4  -6   81.26    8.38
  12   4  -6   88.79    8.22
  12  -4  -6   93.38    8.76
  12   4  -6   75.68    8.20
 -12  -4   6   90.11   11.56
  12  -4  -6   87.60    7.83
 -12   4   6  101.03    9.21
 -12   4   6   96.06    9.02
 -12  -4   6   95.44    7.61
 -12  -4   6   86.02   11.53
 -12   4   5  392.32   20.85
 -12  -4   5  392.27   26.79
  12  -4  -5  350.42   18.66
  12   4  -5  382.58   19.68
  12  -4  -5  371.21   20.14
  12   4  -5  315.90   19.95
 -12  -4   5  390.20   24.47
 -12  -4   5  384.20   19.33
  12   4  -5  393.44   21.88
 -12   4   4 1966.51   65.25
 -12  -4   4 2023.15   76.99
  12  -4  -4 1747.66   61.97
  12   4  -4 1867.16   62.87
  12  -4  -4 1846.73   64.04
  12   4  -4 1731.79   65.67
 -12  -4   4 1859.86   71.63
 -12  -4   4 2008.12   64.57
 -12   4   4 1536.15   60.37
  12   4  -4 1898.86   66.94
 -12   4   3  113.98   10.00
 -12  -4   3  116.95   14.33
  12  -4  -3  111.52    9.58
  12   4  -3  107.34    8.80
 -12  -4   3  118.72   10.41
  12   4  -3  112.98   10.72
 -12  -4   3  119.38   13.31
 -12   4   2  620.23   28.81
  12   4  -2  567.72   30.31
 -12  -4   2  590.72   34.37
  12  -4  -2  543.77   26.74
  12   4  -2  616.69   26.70
  12   4  -2  679.44   31.14
 -12  -4   2  714.28   31.51
 -12   4   1 1323.75   50.30
  12   4  -1 1350.79   53.77
 -12  -4   1 1230.82   57.54
  12   4  -1 1419.16   52.66
  12  -4  -1 1172.98   47.50
 -12   4   1 1497.14   52.49
 -12  -4   1 1492.85   54.48
 -12   4   0  128.99   11.24
 -12   4   0  145.95   12.46
  12   4   0  164.24   12.84
 -12  -4   0  130.85   15.08
  12   4   0  141.17   13.09
 -12  -4   0  175.64   14.49
 -12  -4   0  158.94   13.08
 -12   4  -1  418.04   21.92
 -12  -4  -1  462.90   22.96
  12   4   1  443.75   23.33
 -12   4  -1  518.60   26.57
 -12   4  -1  480.35   24.82
  12   4   1  451.22   22.84
 -12  -4  -1  403.17   27.95
  12   4   1  416.92   24.16
 -12  -4  -1  488.95   26.03
 -12  -4  -1  448.40   24.46
  12   4   2 2032.59   79.64
  12   4   2 2006.26   71.99
 -12  -4  -2 2257.35   73.76
 -12   4  -2 2331.13   77.84
 -12   4  -2 2248.21   75.94
  12   4   2 2163.46   75.27
 -12  -4  -2 2131.65   75.58
  12   4   3  232.51   18.38
  12   4   3  221.80   13.56
 -12  -4  -3  244.38   16.39
 -12  -4  -3  246.92   16.63
 -12   4  -3  249.79   16.74
 -12   4  -3  252.30   17.43
 -12  -4  -3  234.13   15.10
  12   4   3  214.15   14.79
 -12  -4  -4  527.35   24.74
  12   4   4  491.62   27.66
 -12  -4  -4  544.48   25.48
 -12  -4  -4  519.27   25.73
 -12   4  -4  529.73   26.93
 -12   4  -4  547.62   26.72
  12   4   4  477.53   23.02
  12   4   5 1139.51   47.17
 -12  -4  -5 1224.51   44.41
 -12   4  -5 1241.06   46.98
 -12   4  -5 1215.91   46.38
 -12  -4  -5 1147.29   43.23
 -12  -4  -5 1148.69   44.85
  12   4   6  482.84   24.37
 -12  -4  -6  474.69   20.91
  12   4   6  452.31   24.55
 -12   4  -6  525.48   24.51
 -12  -4  -6  512.05   22.81
 -13  -1  12  848.06   35.83
 -13   1  12  841.03   36.90
 -13  -1  12  774.49   31.19
  13   1 -12  717.00   28.27
  13  -1 -12  718.80   28.65
 -13   1  12  795.26   28.45
 -13   1  12  847.71   32.53
 -13   1  12  920.36   36.49
 -13  -1  12  863.50   33.96
 -13   1  11    8.20    3.69
 -13  -1  11    5.11    2.72
 -13  -1  11    6.17    2.64
  13   1 -11    4.10    1.66
  13  -1 -11    4.89    1.62
  13   1 -11    3.37    1.75
 -13   1  11    3.31    1.68
 -13   1  11    2.59    2.12
 -13  -1  11    8.28    3.94
 -13   1  11    2.62    3.32
 -13  -1  10 2067.42   57.58
 -13   1  10 1865.10   55.96
  13   1 -10 1692.19   32.75
  13  -1 -10 1619.81   34.27
  13  -1 -10 1473.37   32.53
  13   1 -10 1570.96   33.64
 -13  -1  10 1633.86   40.28
 -13   1  10 1855.88   35.80
 -13   1  10 1745.77   42.51
  13   1 -10 1444.56   31.80
 -13   1  10 1976.06   53.58
 -13  -1  10 2045.05   51.51
 -13   1   9    7.56    4.90
 -13  -1   9    6.42    3.82
  13  -1  -9    5.39    2.42
  13   1  -9    4.92    2.13
  13   1  -9    4.27    2.12
  13  -1  -9    2.93    1.93
  13   1  -9    3.47    2.18
 -13   1   9    6.47    2.77
 -13  -1   9    5.07    3.98
 -13   1   9    1.46    3.29
 -13  -1   9    6.66    3.05
  13   1  -9    1.92    1.83
  13   1  -8  294.43   16.97
  13  -1  -8  263.42   17.34
  13  -1  -8  244.49   17.13
  13   1  -8  225.87   15.98
  13   1  -8  241.58   17.00
 -13  -1   8  299.22   23.62
 -13   1   8  251.31   19.98
 -13  -1   8  295.13   26.37
 -13   1   8  259.91   24.80
 -13   1   8  299.44   24.66
 -13  -1   8  313.23   24.65
  13   1  -7  174.66   13.08
  13  -1  -7  185.00   14.57
 -13  -1   7  166.24   16.48
  13   1  -7  176.50   14.14
  13   1  -7  153.93   13.30
  13   1  -7  173.43   14.46
 -13   1   7  161.37   16.22
 -13   1   7  202.65   20.54
 -13  -1   7  182.29   19.45
 -13  -1   7  182.20   21.26
 -13   1   7  142.10   18.70
 -13  -1   7  176.83   18.65
  13   1  -6 1881.03   65.53
  13  -1  -6 1807.05   67.54
  13   1  -6 1829.68   67.71
 -13   1   6 1683.86   72.33
 -13  -1   6 1714.56   72.83
 -13  -1   6 1769.41   77.30
 -13   1   6 1930.03   75.17
 -13   1   6 1838.55   79.75
 -13  -1   6 2089.30   82.14
 -13  -1   6 2070.70   87.07
 -13   1   6 1908.54   84.59
  13   1  -5   11.98    4.26
 -13   1   5    7.28    4.32
 -13   1   5   12.37    6.02
 -13  -1   5    9.99    5.46
 -13   1   5    8.09    4.21
 -13  -1   5   10.76    5.12
  13  -1  -5   10.99    3.83
  13   1  -5   13.46    3.77
 -13  -1   5   12.12    6.45
 -13   1   5   10.97    6.33
 -13  -1   4 3885.84  139.63
 -13   1   4 3389.02  135.10
 -13   1   4 3663.59  126.34
  13   1  -4 3530.79  117.73
 -13   1   4 3580.53  123.84
 -13  -1   4 3499.29  125.12
  13   1  -4 3530.81  113.72
  13  -1  -4 3407.40  116.77
 -13   1   4 3631.19  132.15
 -13  -1   4 3929.41  133.89
 -13  -1   3   26.70    6.29
 -13   1   3   21.77    5.05
 -13   1   3   22.89    6.08
 -13  -1   3   25.55    7.03
  13   1  -3   30.90    6.07
 -13   1   3   33.42    9.05
 -13  -1   3   33.44    8.76
  13   1  -3   23.31    4.46
  13  -1  -3   26.34    5.42
  13  -1  -2  148.41   13.25
 -13  -1   2  163.66   15.74
  13  -1  -2  136.98   18.64
  13   1  -2  148.35   17.16
 -13   1   2  174.28   15.77
 -13  -1   2  166.11   17.27
  13   1  -2  182.79   14.77
 -13   1   2  168.54   19.75
 -13  -1   2  205.78   20.99
 -13   1   2  164.23   13.94
 -13  -1   2  200.47   19.45
  13  -1  -1  151.00   19.39
  13   1  -1  206.28   19.91
 -13  -1   1  233.83   20.07
  13   1  -1  194.54   14.98
  13  -1  -1  181.76   14.26
 -13   1   1  187.25   14.72
 -13  -1   1  217.49   20.45
  13  -1   0 2308.34   79.95
 -13  -1   0 2316.47   86.08
 -13   1   0 2287.56   81.06
 -13  -1   0 2616.61   94.33
  13   1   0 2431.40   81.50
 -13   1  -1   27.67    5.20
 -13  -1  -1   29.58    8.07
  13   1   1   27.35    5.80
  13   1   1   26.69    4.88
 -13  -1  -1   27.36    8.50
 -13  -1  -1   25.58    7.28
 -13  -1  -1   17.52    5.09
  13   1   2 4002.50  131.17
 -13  -1  -2 3791.48  133.35
 -13   1  -2 4620.79  157.12
 -13  -1  -2 4522.58  152.59
 -13   1  -2 3795.06  140.23
 -13  -1  -2 4255.65  142.79
 -13   1  -2 4181.06  147.89
 -13  -1  -2 4587.41  146.10
  13   1   3   12.01    3.67
 -13  -1  -3   15.94    4.30
 -13   1  -3    7.37    5.67
 -13  -1  -3   16.31    6.98
 -13   1  -3   12.43    4.80
 -13  -1  -3   12.08    5.08
 -13   1  -3    7.39    5.12
 -13  -1  -3   18.05    5.98
  13   1   4   86.39    8.87
 -13   1  -4   81.41   11.25
 -13  -1  -4   85.63   11.70
 -13   1  -4   88.10   13.29
 -13  -1  -4   99.73   13.14
 -13  -1  -4   69.40    8.42
 -13   1  -4   99.64   15.94
 -13  -1  -4   94.14   14.45
 -13   1  -5  122.49   13.32
 -13   1  -5  142.00   16.19
 -13  -1  -5  154.11   16.02
 -13   1  -5  141.09   18.77
 -13  -1  -5  158.47   18.22
 -13   1  -6 2618.33   85.62
 -13  -1  -6 2461.71   88.54
 -13   1  -7    3.77    2.67
 -13  -1  -7    4.96    3.01
 -13  -1  -7    9.61    4.03
 -13   1  -7    1.31    1.04
 -13  -1  -8 1656.64   61.97
 -13   1  -8 1710.88   65.40
 -13  -1  -8 1835.32   65.79
 -13  -1  -9   24.63    4.49
 -13   1  -9   24.83    5.13
 -13  -1  -9   27.34    5.29
 -13   3  10 1637.61   47.58
  13   3 -10 1280.05   46.48
 -13  -3   9  224.12   13.22
  13  -3  -9  177.00   11.27
  13   3  -9  194.36   11.42
  13  -3  -9  214.54   11.92
 -13   3   9  245.05   12.70
 -13   3   9  213.98   13.85
 -13  -3   9  250.15   17.43
  13   3  -9  182.95   11.62
  13  -3  -9  215.90   12.78
 -13  -3   8  125.26    9.73
  13   3  -8  116.15    8.11
  13  -3  -8  121.10    8.37
 -13   3   8  131.46    9.09
 -13   3   8  131.14   10.47
 -13  -3   8  132.78   13.29
  13   3  -8  124.92    9.24
  13   3  -7  277.35   13.99
  13  -3  -7  365.62   17.42
 -13  -3   7  332.62   16.77
  13  -3  -7  334.33   14.55
 -13  -3   7  348.48   20.52
 -13   3   7  355.40   16.06
 -13   3   7  314.18   16.93
 -13  -3   7  368.41   23.52
  13   3  -7  316.08   15.68
  13  -3  -6 1047.43   39.90
 -13  -3   6  961.09   39.70
  13  -3  -6  900.46   35.64
  13   3  -6  846.49   36.89
 -13  -3   6  997.64   44.63
 -13   3   6 1004.44   38.23
 -13   3   6  951.27   39.53
  13   3  -6  781.60   36.24
 -13  -3   5  114.56   11.19
  13  -3  -5  100.46    8.91
  13   3  -5  111.29   10.45
 -13  -3   5  101.91   12.58
  13   3  -5   91.73    9.75
 -13   3   5  101.72   10.40
  13   3  -5  109.48   10.65
 -13  -3   5  119.38   10.38
  13   3  -4 1712.45   57.74
 -13   3   4 1785.98   56.45
 -13   3   4 1819.75   55.81
  13  -3  -4 1653.10   52.66
 -13  -3   4 1763.39   65.40
  13   3  -4 1960.62   59.59
 -13  -3   4 2006.06   59.20
  13  -3  -3  298.71   17.05
  13   3  -3  316.75   20.32
 -13   3   3  377.82   19.16
  13   3  -3  343.08   20.81
 -13  -3   3  365.75   21.55
 -13   3   3  357.40   20.19
 -13   3   3  343.36   19.30
 -13   3   2  230.17   15.48
 -13   3   2  215.17   14.57
 -13   3   2  197.15   16.52
  13   3  -2  218.47   16.11
 -13   3   2  217.45   14.31
  13   3  -2  228.22   16.40
  13   3  -2  229.26   17.01
 -13  -3   2  250.39   17.47
 -13   3   1  441.74   23.49
 -13   3   1  445.75   22.82
 -13  -3   1  542.43   26.98
 -13   3   1  403.38   25.70
  13   3  -1  497.92   25.85
 -13   3   1  505.73   23.97
  13   3  -1  497.87   25.52
  13   3  -1  450.29   25.72
 -13  -3   1  517.79   27.13
  13   3   0 1291.77   34.89
 -13   3   0 1275.46   32.10
  13   3   0 1275.49   33.59
  13   3   0 1254.74   36.38
 -13  -3   0 1336.34   37.76
 -13   3  -1   95.96   11.33
  13   3   1  121.66   10.94
 -13   3  -1  117.28   10.51
  13   3   1  131.29   10.88
 -13  -3  -1  138.20   12.50
  13   3   1  136.36   12.27
  13   3   2 2120.83   72.00
 -13   3  -2 2181.20   72.95
  13   3   2 2083.32   73.98
 -13  -3  -2 2215.80   75.20
 -13  -3  -2 2355.29   77.21
 -13   3  -3  554.11   26.28
  13   3   3  539.25   26.28
 -13  -3  -3  544.75   26.77
 -13  -3  -3  557.63   28.66
 -13  -3  -3  611.80   29.37
 -13   3  -4    4.68    2.46
  13   3   4    8.13    2.57
 -13  -3  -4    4.29    2.08
 -13  -3  -4    2.55    2.01
 -13  -3  -5  293.17   14.43
 -13  -3  -5  283.06   16.12
 -13  -3  -5  330.67   17.94
 -13   3  -5  325.05   18.39
  13   3   5  285.47   17.70
 -13  -3  -6 1309.44   32.54
 -13   3  -6 1331.71   33.64
 -13  -3  -7   10.87    3.11
 -13   3  -7   12.14    3.18
  14   0 -10  871.12   31.84
 -14   0  10 1030.05   42.14
 -14   0  10 1026.16   39.93
 -14   0  10  905.57   35.79
  14   0 -10  768.18   31.70
  14   0  -9    2.79    1.19
  14   0  -9    1.89    1.30
 -14   0   9    2.63    2.70
  14   0  -9    1.66    1.31
 -14   0   9    6.38    2.87
  14   0  -9    7.93    2.22
 -14   0   9    3.12    3.30
  14   0  -8  319.76   17.36
  14   0  -8  316.31   16.23
 -14   0   8  293.44   22.96
 -14   0   8  299.66   19.35
 -14   0   8  316.85   22.03
 -14   0   7    1.98    3.47
 -14   0   7    4.45    3.06
 -14   0   7    1.72    2.26
  14   0  -7    8.39    2.52
  14   0  -7    2.12    1.92
  14   0  -6 1522.32   55.12
 -14   0   6 1617.17   70.43
 -14   0   6 1581.91   62.40
  14   0  -6 1563.32   57.45
 -14   0   6 1773.16   68.84
 -14   0   5    0.74    3.11
  14   0  -5    3.06    2.29
 -14   0   5   -0.47    2.13
  14   0  -5    1.92    1.90
 -14   0   5    4.41    3.60
 -14   0   4  526.89   29.11
  14   0  -4  482.70   24.98
 -14   0   4  500.23   32.24
  14   0  -4  444.34   22.27
  14   0  -3    7.34    2.89
 -14   0   3    2.33    2.46
  14   0  -3    4.65    2.05
 -14   0   3    1.34    2.81
 -14   0   2  971.27   39.93
 -14   0   2 1076.67   45.59
  14   0  -2 1005.11   41.21
 -14   0   1    3.18    2.11
  14   0  -1    1.64    1.80
 -14   0   0 1885.62   65.07
  14   0   0 1995.44   67.21
 -14   0  -1    3.95    3.55
 -14   0  -1    4.54    3.49
  14   0   1    5.10    2.09
 -14   0  -2  565.45   36.75
 -14   0  -2  520.38   30.75
  14   0   2  475.01   23.53
 -14   0  -3    3.84    4.04
 -14   0  -3    4.80    3.93
 -14   0  -4 1979.33   75.29
 -14   0  -4 2016.64   80.87
 -14   0  -5    1.55    2.96
 -14   0  -5    5.47    3.76
 -14   0  -5    0.83    2.78
 -14   0  -6 1568.17   60.77
 -14   0  -6 1877.72   67.14
 -14   0  -7    2.56    2.02
 -14   0  -7    4.34    2.66
  14  -2  -9  257.59   13.55
 -14  -2   9  273.12   15.00
 -14   2   9  290.39   14.15
 -14   2   9  309.43   16.61
  14   2  -9  246.37   13.39
  14  -2  -9  285.26   14.18
  14  -2  -8  191.06   11.90
 -14  -2   8  197.90   13.17
  14  -2  -8  201.53   12.31
  14   2  -8  190.34   11.63
  14   2  -8  155.93   10.64
 -14   2   8  219.95   12.50
 -14   2   8  213.58   14.26
 -14   2   8  179.06   13.30
 -14  -2   8  190.27   12.67
  14   2  -8  186.52   11.89
  14   2  -7   61.87    6.71
  14  -2  -7   86.63    7.97
  14   2  -7   81.24    6.44
  14   2  -7   90.23    7.92
  14   2  -7   78.05    7.46
 -14   2   7   86.99    8.00
 -14   2   7   85.82    9.13
  14   2  -7   87.94    8.21
 -14   2   7   86.91    9.38
 -14  -2   7   89.70    8.83
  14   2  -6 1588.65   53.44
  14   2  -6 1426.43   53.06
  14   2  -6 1338.82   52.44
 -14   2   6 1441.23   56.93
 -14  -2   6 1628.70   56.91
  14  -2  -6 1663.48   54.40
  14  -2  -5   56.14    6.76
  14   2  -5   57.61    6.66
 -14  -2   5   56.32    7.74
  14   2  -5   50.33    6.61
  14   2  -5   45.35    6.48
 -14   2   5   43.54    7.25
  14   2  -5   48.14    6.42
 -14   2   5   45.26    6.09
 -14   2   4  119.53   10.31
 -14   2   4  128.59    9.96
  14   2  -4  139.50   11.65
  14   2  -4  138.35   10.69
 -14  -2   4  129.75   12.40
  14  -2  -4  135.95   10.96
  14   2  -3  123.55    9.36
  14   2  -3  124.60   10.59
 -14   2   3  110.72    9.34
  14   2  -3  119.32   10.41
 -14  -2   3  117.04   10.67
  14  -2  -3  125.40    9.85
  14   2  -2  514.70   23.02
  14   2  -2  484.06   24.86
 -14   2   2  443.79   22.86
  14   2  -2  501.04   25.00
 -14  -2   2  495.70   25.93
  14  -2  -2  494.54   23.50
  14  -2  -1   24.26    4.35
  14   2  -1   27.51    4.39
  14   2  -1   35.31    5.68
 -14   2   1   28.36    6.92
 -14  -2   1   37.59    7.37
  14   2  -1   35.44    5.66
 -14   2   1   26.72    4.60
 -14  -2   1   32.09    5.88
  14   2   0 2787.46   89.73
 -14   2   0 2545.60   97.45
 -14  -2   0 2867.72   97.90
 -14   2   0 2561.72   87.19
  14   2   0 2656.86   90.02
  14   2   1  181.32   13.01
 -14   2  -1  164.22   16.36
 -14  -2  -1  187.51   16.46
  14   2   1  180.94   12.37
 -14  -2  -1  193.75   15.90
 -14  -2  -1  176.41   13.59
 -14   2  -2  175.49   16.69
 -14  -2  -2  196.95   16.48
 -14  -2  -2  199.75   15.97
  14   2   2  174.82   12.16
  14   2   2  175.72   12.97
 -14  -2  -2  172.88   13.01
 -14  -2  -3  357.86   21.44
 -14   2  -3  287.26   21.54
 -14  -2  -3  303.46   20.74
 -14  -2  -3  286.60   16.69
  14   2   3  283.42   16.53
 -14   2  -4 1249.52   44.52
 -14  -2  -4 1167.66   44.39
  14   2   4  917.05   36.78
 -14  -2  -4  918.91   36.89
 -14   2  -5    2.57    2.10
 -14  -2  -5    8.29    2.91
  14   2   5    5.66    2.45
 -14  -2  -5    4.84    2.57
 -14  -2  -6 2777.62   90.18
 -14   2  -6 2885.08   90.89
 -14  -2  -6 2823.34   92.14
  14   4  -2  450.86   20.03
 -14  -4   2  501.04   20.29
  14   4  -2  471.26   20.94
  14   4  -1  132.28    9.42
 -14  -4   1  147.00    8.33
 -14   4   1  152.62    9.05
  14   4  -1  124.05    8.03
  15  -1  -8 1722.71   58.81
  15  -1  -8 1836.89   58.08
  15   1  -8 1776.85   59.01
 -15   1   8 1964.22   63.83
 -15  -1   8 1985.16   63.17
  15  -1  -8 1824.04   58.98
 -15  -1   8 1951.64   61.68
  15   1  -8 1840.96   58.84
  15   1  -7    2.89    1.47
 -15   1   7    2.54    2.14
 -15  -1   7    2.11    1.92
  15   1  -7    4.29    1.70
  15   1  -7    2.99    1.42
 -15  -1   7    3.60    1.96
  15  -1  -7    2.32    1.32
 -15   1   6 1573.75   51.75
  15  -1  -6 1454.94   49.80
  15   1  -6 1359.04   50.76
 -15  -1   6 1674.89   55.36
  15  -1  -6 1564.24   52.05
  15   1  -6 1551.34   51.33
  15   1  -5   64.35    6.65
  15  -1  -5   62.07    5.85
 -15   1   5   64.29    6.43
 -15  -1   5   74.73    8.22
  15  -1  -5   64.81    6.68
  15   1  -5   58.33    6.13
  15   1  -5   62.75    6.72
  15  -1  -4   90.12    7.19
  15   1  -4   84.20    8.14
 -15   1   4   92.41    7.89
 -15  -1   4  120.77   10.70
  15  -1  -4   96.55    8.40
  15   1  -4   95.44    7.96
  15   1  -3   15.13    3.45
  15   1  -3   13.18    2.96
  15  -1  -3   13.66    2.60
 -15  -1   3   16.99    3.22
 -15   1   3   14.34    3.04
  15   1  -3   15.29    3.61
  15  -1  -3   13.92    3.23
  15   1  -2 3121.87   46.96
  15  -1  -2 3222.27   45.30
  15   1  -2 3278.20   42.50
  15   1  -2 3296.89   47.88
 -15   1   2 3091.77   41.34
  15   1  -1    3.19    1.98
  15   1  -1    5.71    1.91
  15  -1  -1    3.93    1.94
 -15   1   1    5.68    3.93
 -15  -1   1    9.16    4.57
  15   1  -1    3.82    1.98
 -15   1   1    0.58    0.53
 -15   1   0 1987.48   73.62
  15   1   0 1761.75   62.21
  15  -1   0 1768.04   60.59
  15   1   0 1867.43   62.03
 -15   1  -1  433.64   26.67
 -15  -1  -1  456.18   26.84
 -15   1  -2  518.99   29.26
 -15  -1  -2  525.01   28.87
  15   1   3    6.01    2.02
 -15   1  -3    6.24    3.33
 -15  -1  -3    9.09    3.96
 -15  -1  -3    5.66    2.58
 -15  -1  -4 3171.88  105.61
 -15   1  -4 3396.56  103.28
 -16   0   4  334.48   14.51
  16   0  -4  345.42   16.01
 -16   0   3    1.75    2.00
 -16   0   3    0.47    0.37
  16   0  -3    1.97    1.20
  16   0  -3    1.60    1.06
  16   0  -2 1971.01   65.96
  16   0  -2 2076.09   66.05
  16   0  -1    3.17    1.56
 -16   0   1    1.47    1.94
 -16   0   0   31.00    5.71
   0   0   0    0.00    0.00


TITL U2(OH2) in C2/c
REM C2/c (#15 in standard setting)
CELL 1.54184  13.561978   6.782461  15.592614  90.0000  95.6196  90.0000
ZERR    3.00   0.000163   0.000072   0.000187   0.0000   0.0011   0.0000
LATT  7
SYMM -x, y,-z+1/2
SFAC O S U
UNIT 60.00 9.00 6.00
TREF
HKLF 4
END
_computing_structure_solution     'SHELXT 2018/2 (Sheldrick, 2018)'
;
_shelx_hkl_checksum                64158
